version 2
run General-0-20250117-11:19:59-193038
attr configname General
attr datetime 20250117-11:19:59
attr experiment General
attr inifile shaw_exist.ini
attr iterationvars ""
attr iterationvarsf ""
attr measurement ""
attr network src.dtnsim
attr processid 193038
attr repetition 0
attr replication #0
attr resultdir results
attr runnumber 0
attr seedset 0
param dtnsim.central.contactsFile "\"contactPlan/Contacts.txt\""
param dtnsim.central.contactsFile_A "\"contactPlan/Contacts_A.txt\""
param dtnsim.central.contactsFile_B "\"contactPlan/Contacts_B.txt\""
param dtnsim.central.contactIdsToDelete_from_celestialA "\"1 19 23 25 32 33 34 35 46 48 57 60 65 68 69 71 72 77 78 89 91 95 101 102 113 125 126 130 134 135 140 148 163 168 173 178 179 182 185 186 193 203 204 212 215 223 224 226 228 241 243 249 250 251 263 268 274 275 283 289 290 298 304 307 308 309 310 311 313 318 319 321 326 327 334 336 341 342 345 348 351 356 358 377 381 383 395 396 399 416 423 424 430 434 437 439 442 450 456 464 468 475\""
param dtnsim.central.contactIdsToDelete_from_celestialB "\"3 6 12 17 27 29 30 38 41 49 53 58 59 70 83 93 94 97 98 99 100 119 124 128 131 144 147 150 155 157 169 171 183 188 190 194 197 200 201 229 230 231 235 236 238 246 253 254 267 271 272 276 278 294 295 297 300 303 305 317 325 330 331 339 347 352 353 355 362 364 366 367 372 376 378 380 384 388 394 397 398 401 404 410 412 415 422 432 433 438 444 445 454 457 465 467 470 480\""
param dtnsim.central.celestialA_nodes "\"1 2 3\""
param dtnsim.central.celestialB_nodes "\"4 5 6\""
param dtnsim.central.locallyfaultsAware true
param dtnsim.central.mode_two_celestial true
param dtnsim.nodesNumber 6
param dtnsim.node[1].icon "\"receiverdish\""
param dtnsim.node[2..5].icon "\"satellite\""
param dtnsim.node[6].icon "\"receiverdish\""
param dtnsim.node[*].dtn.routing "\"cgrModel350\""
param dtnsim.node[*].dtn.routingType "\"routeListType:allPaths-firstEnding,volumeAware:allContacts,extensionBlock:on,contactPlan:global\""
param dtnsim.node[1].app.enable true
param dtnsim.node[1].app.bundlesNumber "\"8000\""
param dtnsim.node[1].app.start "\"0\""
param dtnsim.node[1].app.destinationEid "\"6\""
param dtnsim.node[1].app.size "\"1500\""
param dtnsim.node[1].app.interval 10

vector 0 dtnsim.node[6].app appBundleReceivedDelayvec:vector ETV
attr interpolationmode none
attr source appBundleReceivedDelay
attr title "appBundleReceivedDelayvec, vector"
0	86780	53708	53708
0	86786	53708	53698
0	86792	53708	53688
0	86798	53708	53678
0	86804	53708	53668
0	86810	53708	53658
0	86816	53708	53648
0	86822	53708	53638
0	86828	53708	53628
0	86834	53708	53618
0	86840	53708	53608
0	86846	53708	53598
0	86852	53708	53588
0	86858	53708	53578
0	86864	53708	53568
0	86870	53708	53558
0	86876	53708	53548
0	86882	53708	53538
0	86888	53708	53528
0	86894	53708	53518
0	86900	53708	53508
0	86906	53708	53498
0	86912	53708	53488
0	86918	53708	53478
0	86924	53708	53468
0	86930	53708	53458
0	86936	53708	53448
0	86942	53708	53438
0	86948	53708	53428
0	86954	53708	53418
0	86960	53708	53408
0	86966	53708	53398
0	86972	53708	53388
0	86978	53708	53378
0	86984	53708	53368
0	86990	53708	53358
0	86996	53708	53348
0	87002	53708	53338
0	87008	53708	53328
0	87014	53708	53318
0	87020	53708	53308
0	87026	53708	53298
0	87032	53708	53288
0	87038	53708	53278
0	87044	53708	53268
0	87050	53708	53258
0	87056	53708	53248
0	87062	53708	53238
0	87068	53708	53228
0	87074	53708	53218
0	87080	53708	53208
0	87086	53708	53198
0	87092	53708	53188
0	87098	53708	53178
0	87104	53708	53168
0	87110	53708	53158
0	87116	53708	53148
0	87122	53708	53138
0	87128	53708	53128
0	87134	53708	53118
0	87140	53708	53108
0	87146	53708	53098
0	87152	53708	53088
0	87158	53708	53078
0	87164	53708	53068
0	87170	53708	53058
0	87176	53708	53048
0	87182	53708	53038
0	87188	53708	53028
0	87194	53708	53018
0	87200	53708	53008
0	87206	53708	52998
0	87212	53708	52988
0	87218	53708	52978
0	87224	53708	52968
0	87230	53708	52958
0	87236	53708	52948
0	87242	53708	52938
0	87248	53708	52928
0	87254	53708	52918
0	87260	53708	52908
0	87266	53708	52898
0	87272	53708	52888
0	87278	53708	52878
0	87284	53708	52868
0	87290	53708	52858
0	87296	53708	52848
0	87302	53708	52838
0	87308	53708	52828
0	87314	53708	52818
0	87320	53708	52808
0	87326	53708	52798
0	87332	53708	52788
0	87338	53708	52778
0	87344	53708	52768
0	87350	53708	52758
0	87356	53708	52748
0	87362	53708	52738
0	87368	53708	52728
0	87374	53708	52718
0	87380	53708	52708
0	87386	53708	52698
0	87392	53708	52688
0	87398	53708	52678
0	87404	53708	52668
0	87410	53708	52658
0	87416	53708	52648
0	87422	53708	52638
0	87428	53708	52628
0	87434	53708	52618
0	87440	53708	52608
0	87446	53708	52598
0	87452	53708	52588
0	87458	53708	52578
0	87464	53708	52568
0	87470	53708	52558
0	87476	53708	52548
0	87482	53708	52538
0	87488	53708	52528
0	87494	53708	52518
0	87500	53708	52508
0	87506	53708	52498
0	87512	53708	52488
0	87518	53708	52478
0	87524	53708	52468
0	87530	53708	52458
0	87536	53708	52448
0	87542	53708	52438
0	87548	53708	52428
0	87554	53708	52418
0	87560	53708	52408
0	87566	53708	52398
0	87572	53708	52388
0	87578	53708	52378
0	87584	53708	52368
0	87590	53708	52358
0	87596	53708	52348
0	87602	53708	52338
0	87608	53708	52328
0	87614	53708	52318
0	87620	53708	52308
0	87626	53708	52298
0	87632	53708	52288
0	87638	53708	52278
0	87644	53708	52268
0	87650	53708	52258
0	87656	53708	52248
0	87662	53708	52238
0	87668	53708	52228
0	87674	53708	52218
0	87680	53708	52208
0	87686	53708	52198
0	87692	53708	52188
0	87698	53708	52178
0	87704	53708	52168
0	87710	53708	52158
0	87716	53708	52148
0	87722	53708	52138
0	87728	53708	52128
0	87734	53708	52118
0	87740	53708	52108
0	87746	53708	52098
0	87752	53708	52088
0	87758	53708	52078
0	87764	53708	52068
0	87770	53708	52058
0	87776	53708	52048
0	87782	53708	52038
0	87788	53708	52028
0	87794	53708	52018
0	87800	53708	52008
0	87806	53708	51998
0	87812	53708	51988
0	87818	53708	51978
0	87824	53708	51968
0	87830	53708	51958
0	87836	53708	51948
0	87842	53708	51938
0	87848	53708	51928
0	87854	53708	51918
0	87860	53708	51908
0	87866	53708	51898
0	87872	53708	51888
0	87878	53708	51878
0	87884	53708	51868
0	87890	53708	51858
0	87896	53708	51848
0	87902	53708	51838
0	87908	53708	51828
0	87914	53708	51818
0	87920	53708	51808
0	87926	53708	51798
0	87932	53708	51788
0	87938	53708	51778
0	87944	53708	51768
0	87950	53708	51758
0	87956	53708	51748
0	87962	53708	51738
0	87968	53708	51728
0	87974	53708	51718
0	87980	53708	51708
0	87986	53708	51698
0	87992	53708	51688
0	87998	53708	51678
0	88004	53708	51668
0	88010	53708	51658
0	88016	53708	51648
0	88022	53708	51638
0	88028	53708	51628
0	88034	53708	51618
0	88040	53708	51608
0	88046	53708	51598
0	88052	53708	51588
0	88058	53708	51578
0	88064	53708	51568
0	88070	53708	51558
0	88076	53708	51548
0	88082	53708	51538
0	88088	53708	51528
0	88094	53708	51518
0	88100	53708	51508
0	88106	53708	51498
0	88112	53708	51488
0	88118	53708	51478
0	88124	53708	51468
0	88130	53708	51458
0	88136	53708	51448
0	88142	53708	51438
0	88148	53708	51428
0	88154	53708	51418
0	88160	53708	51408
0	88166	53708	51398
0	88172	53708	51388
0	88178	53708	51378
0	88184	53708	51368
0	88190	53708	51358
0	88196	53708	51348
0	88202	53708	51338
0	88208	53708	51328
0	88214	53708	51318
0	88220	53708	51308
0	88226	53708	51298
0	88232	53708	51288
0	88238	53708	51278
0	88244	53708	51268
0	88250	53708	51258
0	88256	53708	51248
0	88262	53708	51238
0	88268	53708	51228
0	88274	53708	51218
0	88280	53708	51208
0	88286	53708	51198
0	88292	53708	51188
0	88298	53708	51178
0	88304	53708	51168
0	88310	53708	51158
0	88316	53708	51148
0	88322	53708	51138
0	88328	53708	51128
0	88334	53708	51118
0	88340	53708	51108
0	88346	53708	51098
0	88352	53708	51088
0	88358	53708	51078
0	88364	53708	51068
0	88370	53708	51058
0	88376	53708	51048
0	88382	53708	51038
0	88388	53708	51028
0	88394	53708	51018
0	88400	53708	51008
0	88406	53708	50998
0	88412	53708	50988
0	88418	53708	50978
0	88424	53708	50968
0	88430	53708	50958
0	88436	53708	50948
0	88442	53708	50938
0	88448	53708	50928
0	88454	53708	50918
0	88460	53708	50908
0	88466	53708	50898
0	88472	53708	50888
0	88478	53708	50878
0	88484	53708	50868
0	88490	53708	50858
0	88496	53708	50848
0	88502	53708	50838
0	88508	53708	50828
0	88514	53708	50818
0	88520	53708	50808
0	88526	53708	50798
0	88532	53708	50788
0	88538	53708	50778
0	88544	53708	50768
0	88550	53708	50758
0	88556	53708	50748
0	88562	53708	50738
0	88568	53708	50728
0	88574	53708	50718
0	88580	53708	50708
0	88586	53708	50698
0	88592	53708	50688
0	88598	53708	50678
0	88604	53708	50668
0	88610	53708	50658
0	88616	53708	50648
0	88622	53708	50638
0	88628	53708	50628
0	88634	53708	50618
0	88640	53708	50608
0	88646	53708	50598
0	88652	53708	50588
0	88658	53708	50578
0	88664	53708	50568
0	88670	53708	50558
0	88676	53708	50548
0	88682	53708	50538
0	88688	53708	50528
0	88694	53708	50518
0	88700	53708	50508
0	88706	53708	50498
0	88712	53708	50488
0	88718	53708	50478
0	88724	53708	50468
0	88730	53708	50458
0	88736	53708	50448
0	88742	53708	50438
0	88748	53708	50428
0	88754	53708	50418
0	88760	53708	50408
0	88766	53708	50398
0	88772	53708	50388
0	88778	53708	50378
0	88784	53708	50368
0	88790	53708	50358
0	88796	53708	50348
0	88802	53708	50338
0	88808	53708	50328
0	88814	53708	50318
0	88820	53708	50308
0	88826	53708	50298
0	88832	53708	50288
0	88838	53708	50278
0	88844	53708	50268
0	88850	53708	50258
0	88856	53708	50248
0	88862	53708	50238
0	88868	53708	50228
0	88874	53708	50218
0	88880	53708	50208
0	88886	53708	50198
0	88892	53708	50188
0	88898	53708	50178
0	88904	53708	50168
0	88910	53708	50158
0	88916	53708	50148
0	88922	53708	50138
0	88928	53708	50128
0	88934	53708	50118
0	88940	53708	50108
0	88946	53708	50098
0	88952	53708	50088
0	88958	53708	50078
0	88964	53708	50068
0	88970	53708	50058
0	88976	53708	50048
0	88982	53708	50038
0	88988	53708	50028
0	88994	53708	50018
0	89000	53708	50008
0	89006	53708	49998
0	89012	53708	49988
0	89018	53708	49978
0	89024	53708	49968
0	89030	53708	49958
0	89036	53708	49948
0	89042	53708	49938
0	89048	53708	49928
0	89054	53708	49918
0	89060	53708	49908
0	89066	53708	49898
0	89072	53708	49888
0	89078	53708	49878
0	89084	53708	49868
0	89090	53708	49858
0	89096	53708	49848
0	89102	53708	49838
0	89108	53708	49828
0	89114	53708	49818
0	89120	53708	49808
0	89126	53708	49798
0	89132	53708	49788
0	89138	53708	49778
0	89144	53708	49768
0	89150	53708	49758
0	89156	53708	49748
0	89162	53708	49738
0	89168	53708	49728
0	89174	53708	49718
0	89180	53708	49708
0	89186	53708	49698
0	89192	53708	49688
0	89198	53708	49678
0	89204	53708	49668
0	89210	53708	49658
0	89216	53708	49648
0	89222	53708	49638
0	89228	53708	49628
0	89234	53708	49618
0	89240	53708	49608
0	89246	53708	49598
0	89252	53708	49588
0	89258	53708	49578
0	89264	53708	49568
0	89270	53708	49558
0	89276	53708	49548
0	89282	53708	49538
0	89288	53708	49528
0	89294	53708	49518
0	89300	53708	49508
0	89306	53708	49498
0	89312	53708	49488
0	89318	53708	49478
0	89324	53708	49468
0	89330	53708	49458
0	89336	53708	49448
0	89342	53708	49438
0	89348	53708	49428
0	89354	53708	49418
0	89360	53708	49408
0	89366	53708	49398
0	89372	53708	49388
0	89378	53708	49378
0	89384	53708	49368
0	89390	53708	49358
0	89396	53708	49348
0	89402	53708	49338
0	89408	53708	49328
0	89414	53708	49318
0	89420	53708	49308
0	89426	53708	49298
0	89432	53708	49288
0	89438	53708	49278
0	89444	53708	49268
0	89450	53708	49258
0	89456	53708	49248
0	89462	53708	49238
0	89468	53708	49228
0	89474	53708	49218
0	89480	53708	49208
0	89486	53708	49198
0	89492	53708	49188
0	89498	53708	49178
0	89504	53708	49168
0	89510	53708	49158
0	89516	53708	49148
0	89522	53708	49138
0	89528	53708	49128
0	89534	53708	49118
0	89540	53708	49108
0	89546	53708	49098
0	89552	53708	49088
0	89558	53708	49078
0	89564	53708	49068
0	89570	53708	49058
0	89576	53708	49048
0	89582	53708	49038
0	89588	53708	49028
0	89594	53708	49018
0	89600	53708	49008
0	89606	53708	48998
0	89612	53708	48988
0	89618	53708	48978
0	89624	53708	48968
0	89630	53708	48958
0	89636	53708	48948
0	89642	53708	48938
0	89648	53708	48928
0	89654	53708	48918
0	89660	53708	48908
0	89666	53708	48898
0	89672	53708	48888
0	89678	53708	48878
0	89684	53708	48868
0	89690	53708	48858
0	89696	53708	48848
0	89702	53708	48838
0	89708	53708	48828
0	89714	53708	48818
0	89720	53708	48808
0	89726	53708	48798
0	89732	53708	48788
0	89738	53708	48778
0	89744	53708	48768
0	89750	53708	48758
0	89756	53708	48748
0	89762	53708	48738
0	89768	53708	48728
0	89774	53708	48718
0	89780	53708	48708
0	89786	53708	48698
0	89792	53708	48688
0	89798	53708	48678
0	89804	53708	48668
0	89810	53708	48658
0	89816	53708	48648
0	89822	53708	48638
0	89828	53708	48628
0	89834	53708	48618
0	89840	53708	48608
0	89846	53708	48598
0	89852	53708	48588
0	89858	53708	48578
0	89864	53708	48568
0	89870	53708	48558
0	89876	53708	48548
0	89882	53708	48538
0	89888	53708	48528
0	89894	53708	48518
0	89900	53708	48508
0	89906	53708	48498
0	89912	53708	48488
0	89918	53708	48478
0	89924	53708	48468
0	89930	53708	48458
0	89936	53708	48448
0	89942	53708	48438
0	89948	53708	48428
0	89954	53708	48418
0	89960	53708	48408
0	89966	53708	48398
0	89972	53708	48388
0	89978	53708	48378
0	89984	53708	48368
0	89990	53708	48358
0	89996	53708	48348
0	90002	53708	48338
0	90008	53708	48328
0	90014	53708	48318
0	90020	53708	48308
0	90026	53708	48298
0	90032	53708	48288
0	90038	53708	48278
0	90044	53708	48268
0	90050	53708	48258
0	90056	53708	48248
0	90062	53708	48238
0	90068	53708	48228
0	90074	53708	48218
0	90080	53708	48208
0	90086	53708	48198
0	90092	53708	48188
0	90098	53708	48178
0	90104	53708	48168
0	90110	53708	48158
0	90116	53708	48148
0	90122	53708	48138
0	90128	53708	48128
0	90134	53708	48118
0	90140	53708	48108
0	90146	53708	48098
0	90152	53708	48088
0	90158	53708	48078
0	90164	53708	48068
0	90170	53708	48058
0	90176	53708	48048
0	90182	53708	48038
0	90188	53708	48028
0	90194	53708	48018
0	90200	53708	48008
0	90206	53708	47998
0	90212	53708	47988
0	90218	53708	47978
0	90224	53708	47968
0	90230	53708	47958
0	90236	53708	47948
0	90242	53708	47938
0	90248	53708	47928
0	90254	53708	47918
0	90260	53708	47908
0	90266	53708	47898
0	90272	53708	47888
0	90278	53708	47878
0	90284	53708	47868
0	90290	53708	47858
0	90296	53708	47848
0	90302	53708	47838
0	90308	53708	47828
0	90314	53708	47818
0	90320	53708	47808
0	90326	53708	47798
0	90332	53708	47788
0	90338	53708	47778
0	90344	53708	47768
0	90350	53708	47758
0	90356	53708	47748
0	90362	53708	47738
0	90368	53708	47728
0	90374	53708	47718
0	90380	53708	47708
0	90386	53708	47698
0	90392	53708	47688
0	90398	53708	47678
0	90404	53708	47668
0	90410	53708	47658
0	90416	53708	47648
0	90422	53708	47638
0	90428	53708	47628
0	90434	53708	47618
0	90440	53708	47608
0	90446	53708	47598
0	90452	53708	47588
0	90458	53708	47578
0	90464	53708	47568
0	90470	53708	47558
0	90476	53708	47548
0	90482	53708	47538
0	90488	53708	47528
0	90494	53708	47518
0	90500	53708	47508
0	90506	53708	47498
0	90512	53708	47488
0	90518	53708	47478
0	90524	53708	47468
0	90530	53708	47458
0	90536	53708	47448
0	90542	53708	47438
0	90548	53708	47428
0	90554	53708	47418
0	90560	53708	47408
0	90566	53708	47398
0	90572	53708	47388
0	90578	53708	47378
0	90584	53708	47368
0	90590	53708	47358
0	90596	53708	47348
0	90602	53708	47338
0	90608	53708	47328
0	90614	53708	47318
0	90620	53708	47308
0	90626	53708	47298
0	90632	53708	47288
0	90638	53708	47278
0	90644	53708	47268
0	90650	53708	47258
0	90656	53708	47248
0	90662	53708	47238
0	90668	53708	47228
0	90674	53708	47218
0	90680	53708	47208
0	90686	53708	47198
0	90692	53708	47188
0	90698	53708	47178
0	90704	53708	47168
0	90710	53708	47158
0	90716	53708	47148
0	90722	53708	47138
0	90728	53708	47128
0	90734	53708	47118
0	90740	53708	47108
0	90746	53708	47098
0	90752	53708	47088
0	90758	53708	47078
0	90764	53708	47068
0	90770	53708	47058
0	90776	53708	47048
0	90782	53708	47038
0	90788	53708	47028
0	90794	53708	47018
0	90800	53708	47008
0	90806	53708	46998
0	90812	53708	46988
0	90818	53708	46978
0	90824	53708	46968
0	90830	53708	46958
0	90836	53708	46948
0	90842	53708	46938
0	90848	53708	46928
0	90854	53708	46918
0	90860	53708	46908
0	90866	53708	46898
0	90872	53708	46888
0	90878	53708	46878
0	90884	53708	46868
0	90890	53708	46858
0	90896	53708	46848
0	90902	53708	46838
0	90908	53708	46828
0	90914	53708	46818
0	90920	53708	46808
0	90926	53708	46798
0	90932	53708	46788
0	90938	53708	46778
0	90944	53708	46768
0	90950	53708	46758
0	90956	53708	46748
0	90962	53708	46738
0	90968	53708	46728
0	90974	53708	46718
0	90980	53708	46708
0	90986	53708	46698
0	90992	53708	46688
0	90998	53708	46678
0	91004	53708	46668
0	91010	53708	46658
0	91016	53708	46648
0	91022	53708	46638
0	91028	53708	46628
0	91034	53708	46618
0	91040	53708	46608
0	91046	53708	46598
0	91052	53708	46588
0	91058	53708	46578
0	91064	53708	46568
0	91070	53708	46558
0	91076	53708	46548
0	91082	53708	46538
0	91088	53708	46528
0	91094	53708	46518
0	91100	53708	46508
0	91106	53708	46498
0	91112	53708	46488
0	91118	53708	46478
0	91124	53708	46468
0	91130	53708	46458
0	91136	53708	46448
0	91142	53708	46438
0	91148	53708	46428
0	91154	53708	46418
0	91160	53708	46408
0	91166	53708	46398
0	91172	53708	46388
0	91178	53708	46378
0	91184	53708	46368
0	91190	53708	46358
0	91196	53708	46348
0	91202	53708	46338
0	91208	53708	46328
0	91214	53708	46318
0	91220	53708	46308
0	91226	53708	46298
0	91232	53708	46288
0	91238	53708	46278
0	91244	53708	46268
0	91250	53708	46258
0	91256	53708	46248
0	91262	53708	46238
0	91268	53708	46228
0	91274	53708	46218
0	91280	53708	46208
0	91286	53708	46198
0	91292	53708	46188
0	91298	53708	46178
0	91304	53708	46168
0	91310	53708	46158
0	91316	53708	46148
0	91322	53708	46138
0	91328	53708	46128
0	91334	53708	46118
0	91340	53708	46108
0	91346	53708	46098
0	91352	53708	46088
0	91358	53708	46078
0	91364	53708	46068
0	91370	53708	46058
0	91376	53708	46048
0	91382	53708	46038
0	91388	53708	46028
0	91394	53708	46018
0	91400	53708	46008
0	91406	53708	45998
0	91412	53708	45988
0	91418	53708	45978
0	91424	53708	45968
0	91430	53708	45958
0	91436	53708	45948
0	91442	53708	45938
0	91448	53708	45928
0	91454	53708	45918
0	91460	53708	45908
0	91466	53708	45898
0	91472	53708	45888
0	91478	53708	45878
0	91484	53708	45868
0	91490	53708	45858
0	91496	53708	45848
0	91502	53708	45838
0	91508	53708	45828
0	91514	53708	45818
0	91520	53708	45808
0	91526	53708	45798
0	91532	53708	45788
0	91538	53708	45778
0	91544	53708	45768
0	91550	53708	45758
0	91556	53708	45748
0	91562	53708	45738
0	91568	53708	45728
0	91574	53708	45718
0	91580	53708	45708
0	91586	53708	45698
0	91592	53708	45688
0	91598	53708	45678
0	91604	53708	45668
0	91610	53708	45658
0	91616	53708	45648
0	91622	53708	45638
0	91628	53708	45628
0	91634	53708	45618
0	91640	53708	45608
0	91646	53708	45598
0	91652	53708	45588
0	91658	53708	45578
0	91664	53708	45568
0	91670	53708	45558
0	91676	53708	45548
0	91682	53708	45538
0	91688	53708	45528
0	91694	53708	45518
0	91700	53708	45508
0	91706	53708	45498
0	91712	53708	45488
0	91718	53708	45478
0	91724	53708	45468
0	91730	53708	45458
0	91736	53708	45448
0	91742	53708	45438
0	91748	53708	45428
0	91754	53708	45418
0	91760	53708	45408
0	91766	53708	45398
0	91772	53708	45388
0	91778	53708	45378
0	91784	53708	45368
0	91790	53708	45358
0	91796	53708	45348
0	91802	53708	45338
0	91808	53708	45328
0	91814	53708	45318
0	91820	53708	45308
0	91826	53708	45298
0	91832	53708	45288
0	91838	53708	45278
0	91844	53708	45268
0	91850	53708	45258
0	91856	53708	45248
0	91862	53708	45238
0	91868	53708	45228
0	91874	53708	45218
0	91880	53708	45208
0	91886	53708	45198
0	91892	53708	45188
0	91898	53708	45178
0	91904	53708	45168
0	91910	53708	45158
0	91916	53708	45148
0	91922	53708	45138
0	91928	53708	45128
0	91934	53708	45118
0	91940	53708	45108
0	91946	53708	45098
0	91952	53708	45088
0	91958	53708	45078
0	91964	53708	45068
0	91970	53708	45058
0	91976	53708	45048
0	91982	53708	45038
0	91988	53708	45028
0	91994	53708	45018
0	92000	53708	45008
0	92006	53708	44998
0	92012	53708	44988
0	92018	53708	44978
0	92024	53708	44968
0	92030	53708	44958
0	92036	53708	44948
0	92042	53708	44938
0	92048	53708	44928
0	92054	53708	44918
0	92060	53708	44908
0	92066	53708	44898
0	92072	53708	44888
0	92078	53708	44878
0	92084	53708	44868
0	92090	53708	44858
0	92096	53708	44848
0	92102	53708	44838
0	92108	53708	44828
0	92114	53708	44818
0	92120	53708	44808
0	92126	53708	44798
0	92132	53708	44788
0	92138	53708	44778
0	92144	53708	44768
0	92150	53708	44758
0	92156	53708	44748
0	92162	53708	44738
0	92168	53708	44728
0	92174	53708	44718
0	92180	53708	44708
0	92186	53708	44698
0	92192	53708	44688
0	92198	53708	44678
0	92204	53708	44668
0	92210	53708	44658
0	92216	53708	44648
0	92222	53708	44638
0	92228	53708	44628
0	92234	53708	44618
0	92240	53708	44608
0	92246	53708	44598
0	92252	53708	44588
0	92258	53708	44578
0	92264	53708	44568
0	92270	53708	44558
0	92276	53708	44548
0	92282	53708	44538
0	92288	53708	44528
0	92294	53708	44518
0	92300	53708	44508
0	92306	53708	44498
0	92312	53708	44488
0	92318	53708	44478
0	92324	53708	44468
0	92330	53708	44458
0	92336	53708	44448
0	92342	53708	44438
0	92348	53708	44428
0	92354	53708	44418
0	92360	53708	44408
0	92366	53708	44398
0	92372	53708	44388
0	92378	53708	44378
0	92384	53708	44368
0	92390	53708	44358
0	92396	53708	44348
0	92402	53708	44338
0	92408	53708	44328
0	92414	53708	44318
0	92420	53708	44308
0	92426	53708	44298
0	92432	53708	44288
0	92438	53708	44278
0	92444	53708	44268
0	92450	53708	44258
0	92456	53708	44248
0	92462	53708	44238
0	92468	53708	44228
0	92474	53708	44218
0	92480	53708	44208
0	92486	53708	44198
0	92492	53708	44188
0	92498	53708	44178
0	92504	53708	44168
0	92510	53708	44158
0	92516	53708	44148
0	92522	53708	44138
0	92528	53708	44128
0	92534	53708	44118
0	92540	53708	44108
0	92546	53708	44098
0	92552	53708	44088
0	92558	53708	44078
0	92564	53708	44068
0	92570	53708	44058
0	92576	53708	44048
0	92582	53708	44038
0	92588	53708	44028
0	92594	53708	44018
0	92600	53708	44008
0	92606	53708	43998
0	92612	53708	43988
0	92618	53708	43978
0	92624	53708	43968
0	92630	53708	43958
0	92636	53708	43948
0	92642	53708	43938
0	92648	53708	43928
0	92654	53708	43918
0	92660	53708	43908
0	92666	53708	43898
0	92672	53708	43888
0	92678	53708	43878
0	92684	53708	43868
0	92690	53708	43858
0	92696	53708	43848
0	92702	53708	43838
0	92708	53708	43828
0	92714	53708	43818
0	92720	53708	43808
0	92726	53708	43798
0	92732	53708	43788
0	92738	53708	43778
0	92744	53708	43768
0	92750	53708	43758
0	92756	53708	43748
0	92762	53708	43738
0	92768	53708	43728
0	92774	53708	43718
0	92780	53708	43708
0	92786	53708	43698
0	92792	53708	43688
0	92798	53708	43678
0	92804	53708	43668
0	92810	53708	43658
0	92816	53708	43648
0	92822	53708	43638
0	92828	53708	43628
0	92834	53708	43618
0	92840	53708	43608
0	92846	53708	43598
0	92852	53708	43588
0	92858	53708	43578
0	92864	53708	43568
0	92870	53708	43558
0	92876	53708	43548
0	92882	53708	43538
0	92888	53708	43528
0	92894	53708	43518
0	92900	53708	43508
0	92906	53708	43498
0	92912	53708	43488
0	92918	53708	43478
0	92924	53708	43468
0	92930	53708	43458
0	92936	53708	43448
0	92942	53708	43438
0	92948	53708	43428
0	92954	53708	43418
0	92960	53708	43408
0	92966	53708	43398
0	92972	53708	43388
0	92978	53708	43378
0	92984	53708	43368
0	92990	53708	43358
0	92996	53708	43348
0	93002	53708	43338
0	93008	53708	43328
0	93014	53708	43318
0	93020	53708	43308
0	93026	53708	43298
0	93032	53708	43288
0	93038	53708	43278
0	93044	53708	43268
0	93050	53708	43258
0	93056	53708	43248
0	93062	53708	43238
0	93068	53708	43228
0	93074	53708	43218
0	93080	53708	43208
0	93086	53708	43198
0	93092	53708	43188
0	93098	53708	43178
0	93104	53708	43168
0	93110	53708	43158
0	93116	53708	43148
0	93122	53708	43138
0	93128	53708	43128
0	93134	53708	43118
0	93140	53708	43108
0	93146	53708	43098
0	93152	53708	43088
0	93158	53708	43078
0	93164	53708	43068
0	93170	53708	43058
0	93176	53708	43048
0	93182	53708	43038
0	93188	53708	43028
0	93194	53708	43018
0	93200	53708	43008
0	93206	53708	42998
0	93212	53708	42988
0	93218	53708	42978
0	93224	53708	42968
0	93230	53708	42958
0	93236	53708	42948
0	93242	53708	42938
0	93248	53708	42928
0	93254	53708	42918
0	93260	53708	42908
0	93266	53708	42898
0	93272	53708	42888
0	93278	53708	42878
0	93284	53708	42868
0	93290	53708	42858
0	93296	53708	42848
0	93302	53708	42838
0	93308	53708	42828
0	93314	53708	42818
0	93320	53708	42808
0	93326	53708	42798
0	93332	53708	42788
0	93338	53708	42778
0	93344	53708	42768
0	93350	53708	42758
0	93356	53708	42748
0	93362	53708	42738
0	93368	53708	42728
0	93374	53708	42718
0	93380	53708	42708
0	93386	53708	42698
0	93392	53708	42688
0	93398	53708	42678
0	93404	53708	42668
0	93410	53708	42658
0	93416	53708	42648
0	93422	53708	42638
0	93428	53708	42628
0	93434	53708	42618
0	93440	53708	42608
0	93446	53708	42598
0	93452	53708	42588
0	93458	53708	42578
0	93464	53708	42568
0	93470	53708	42558
0	93476	53708	42548
0	93482	53708	42538
0	93488	53708	42528
0	93494	53708	42518
0	93500	53708	42508
0	93506	53708	42498
0	93512	53708	42488
0	93518	53708	42478
0	93524	53708	42468
0	93530	53708	42458
0	93536	53708	42448
0	93542	53708	42438
0	93548	53708	42428
0	93554	53708	42418
0	93560	53708	42408
0	93566	53708	42398
0	93572	53708	42388
0	93578	53708	42378
0	93584	53708	42368
0	93590	53708	42358
0	93596	53708	42348
0	93602	53708	42338
0	93608	53708	42328
0	93614	53708	42318
0	93620	53708	42308
0	93626	53708	42298
0	93632	53708	42288
0	93638	53708	42278
0	93644	53708	42268
0	93650	53708	42258
0	93656	53708	42248
0	93662	53708	42238
0	93668	53708	42228
0	93674	53708	42218
0	93680	53708	42208
0	93686	53708	42198
0	93692	53708	42188
0	93698	53708	42178
0	93704	53708	42168
0	93710	53708	42158
0	93716	53708	42148
0	93722	53708	42138
0	93728	53708	42128
0	93734	53708	42118
0	93740	53708	42108
0	93746	53708	42098
0	93752	53708	42088
0	93758	53708	42078
0	93764	53708	42068
0	93770	53708	42058
0	93776	53708	42048
0	93782	53708	42038
0	93788	53708	42028
0	93794	53708	42018
0	93800	53708	42008
0	93806	53708	41998
0	93812	53708	41988
0	93818	53708	41978
0	93824	53708	41968
0	93830	53708	41958
0	93836	53708	41948
0	93842	53708	41938
0	93848	53708	41928
0	93854	53708	41918
0	93860	53708	41908
0	93866	53708	41898
0	93872	53708	41888
0	93878	53708	41878
0	93884	53708	41868
0	93890	53708	41858
0	93896	53708	41848
0	93902	53708	41838
0	93908	53708	41828
0	93914	53708	41818
0	93920	53708	41808
0	93926	53708	41798
0	93932	53708	41788
0	93938	53708	41778
0	93944	53708	41768
0	93950	53708	41758
0	93956	53708	41748
0	93962	53708	41738
0	93968	53708	41728
0	93974	53708	41718
0	93980	53708	41708
0	93986	53708	41698
0	93992	53708	41688
0	93998	53708	41678
0	94004	53708	41668
0	94010	53708	41658
0	94016	53708	41648
0	94022	53708	41638
0	94028	53708	41628
0	94034	53708	41618
0	94040	53708	41608
0	94046	53708	41598
0	94052	53708	41588
0	94058	53708	41578
0	94064	53708	41568
0	94070	53708	41558
0	94076	53708	41548
0	94082	53708	41538
0	94088	53708	41528
0	94094	53708	41518
0	94100	53708	41508
0	94106	53708	41498
0	94112	53708	41488
0	94118	53708	41478
0	94124	53708	41468
0	94130	53708	41458
0	94136	53708	41448
0	94142	53708	41438
0	94148	53708	41428
0	94154	53708	41418
0	94160	53708	41408
0	94166	53708	41398
0	94172	53708	41388
0	94178	53708	41378
0	94184	53708	41368
0	94190	53708	41358
0	94196	53708	41348
0	94202	53708	41338
0	94208	53708	41328
0	94214	53708	41318
0	94220	53708	41308
0	94226	53708	41298
0	94232	53708	41288
0	94238	53708	41278
0	94244	53708	41268
0	94250	53708	41258
0	94256	53708	41248
0	94262	53708	41238
0	94268	53708	41228
0	94274	53708	41218
0	94280	53708	41208
0	94286	53708	41198
0	94292	53708	41188
0	94298	53708	41178
0	94304	53708	41168
0	94310	53708	41158
0	94316	53708	41148
0	94322	53708	41138
0	94328	53708	41128
0	94334	53708	41118
0	94340	53708	41108
0	94346	53708	41098
0	94352	53708	41088
0	94358	53708	41078
0	94364	53708	41068
0	94370	53708	41058
0	94376	53708	41048
0	94382	53708	41038
0	94388	53708	41028
0	94394	53708	41018
0	94400	53708	41008
0	94406	53708	40998
0	94412	53708	40988
0	94418	53708	40978
0	94424	53708	40968
0	94430	53708	40958
0	94436	53708	40948
0	94442	53708	40938
0	94448	53708	40928
0	94454	53708	40918
0	94460	53708	40908
0	94466	53708	40898
0	94472	53708	40888
0	94478	53708	40878
0	94484	53708	40868
0	94490	53708	40858
0	94496	53708	40848
0	94502	53708	40838
0	94508	53708	40828
0	94514	53708	40818
0	94520	53708	40808
0	94526	53708	40798
0	94532	53708	40788
0	94538	53708	40778
0	94544	53708	40768
0	94550	53708	40758
0	94556	53708	40748
0	94562	53708	40738
0	94568	53708	40728
0	94574	53708	40718
0	94580	53708	40708
0	94586	53708	40698
0	94592	53708	40688
0	94598	53708	40678
0	94604	53708	40668
0	94610	53708	40658
0	94616	53708	40648
0	94622	53708	40638
0	94628	53708	40628
0	94634	53708	40618
0	94640	53708	40608
0	94646	53708	40598
0	94652	53708	40588
0	94658	53708	40578
0	94664	53708	40568
0	94670	53708	40558
0	94676	53708	40548
0	94682	53708	40538
0	94688	53708	40528
0	94694	53708	40518
0	94700	53708	40508
0	94706	53708	40498
0	94712	53708	40488
0	94718	53708	40478
0	94724	53708	40468
0	94730	53708	40458
0	94736	53708	40448
0	94742	53708	40438
0	94748	53708	40428
0	94754	53708	40418
0	94760	53708	40408
0	94766	53708	40398
0	94772	53708	40388
0	94778	53708	40378
0	94784	53708	40368
0	94790	53708	40358
0	94796	53708	40348
0	94802	53708	40338
0	94808	53708	40328
0	94814	53708	40318
0	94820	53708	40308
0	94826	53708	40298
0	94832	53708	40288
0	94838	53708	40278
0	94844	53708	40268
0	94850	53708	40258
0	94856	53708	40248
0	94862	53708	40238
0	94868	53708	40228
0	94874	53708	40218
0	94880	53708	40208
0	94886	53708	40198
0	94892	53708	40188
0	94898	53708	40178
0	94904	53708	40168
0	94910	53708	40158
0	94916	53708	40148
0	94922	53708	40138
0	94928	53708	40128
0	94934	53708	40118
0	94940	53708	40108
0	94946	53708	40098
0	94952	53708	40088
0	94958	53708	40078
0	94964	53708	40068
0	94970	53708	40058
0	94976	53708	40048
0	94982	53708	40038
0	94988	53708	40028
0	94994	53708	40018
0	95000	53708	40008
0	95006	53708	39998
0	95012	53708	39988
0	95018	53708	39978
0	95024	53708	39968
0	95030	53708	39958
0	95036	53708	39948
0	95042	53708	39938
0	95048	53708	39928
0	95054	53708	39918
0	95060	53708	39908
0	95066	53708	39898
0	95072	53708	39888
0	95078	53708	39878
0	95084	53708	39868
0	95090	53708	39858
0	95096	53708	39848
0	95102	53708	39838
0	95108	53708	39828
0	95114	53708	39818
0	95120	53708	39808
0	95126	53708	39798
0	95132	53708	39788
0	95138	53708	39778
0	95144	53708	39768
0	95150	53708	39758
0	95156	53708	39748
0	95162	53708	39738
0	95168	53708	39728
0	95174	53708	39718
0	95180	53708	39708
0	95186	53708	39698
0	95192	53708	39688
0	95198	53708	39678
0	95204	53708	39668
0	95210	53708	39658
0	95216	53708	39648
0	95222	53708	39638
0	95228	53708	39628
0	95234	53708	39618
0	95240	53708	39608
0	95246	53708	39598
0	95252	53708	39588
0	95258	53708	39578
0	95264	53708	39568
0	95270	53708	39558
0	95276	53708	39548
0	95282	53708	39538
0	95288	53708	39528
0	95294	53708	39518
0	95300	53708	39508
0	95306	53708	39498
0	95312	53708	39488
0	95318	53708	39478
0	95324	53708	39468
0	95330	53708	39458
0	95336	53708	39448
0	95342	53708	39438
0	95348	53708	39428
0	95354	53708	39418
0	95360	53708	39408
0	95366	53708	39398
0	95372	53708	39388
0	95378	53708	39378
0	95384	53708	39368
0	95390	53708	39358
0	95396	53708	39348
0	95402	53708	39338
0	95408	53708	39328
0	95414	53708	39318
0	95420	53708	39308
0	95426	53708	39298
0	95432	53708	39288
0	95438	53708	39278
0	95444	53708	39268
0	95450	53708	39258
0	95456	53708	39248
0	95462	53708	39238
0	95468	53708	39228
0	95474	53708	39218
0	95480	53708	39208
0	95486	53708	39198
0	95492	53708	39188
0	95498	53708	39178
0	95504	53708	39168
0	95510	53708	39158
0	95516	53708	39148
0	95522	53708	39138
0	95528	53708	39128
0	95534	53708	39118
0	95540	53708	39108
0	95546	53708	39098
0	95552	53708	39088
0	95558	53708	39078
0	95564	53708	39068
0	95570	53708	39058
0	95576	53708	39048
0	95582	53708	39038
0	95588	53708	39028
0	95594	53708	39018
0	95600	53708	39008
0	95606	53708	38998
0	95612	53708	38988
0	95618	53708	38978
0	95624	53708	38968
0	95630	53708	38958
0	95636	53708	38948
0	95642	53708	38938
0	95648	53708	38928
0	95654	53708	38918
0	95660	53708	38908
0	95666	53708	38898
0	95672	53708	38888
0	95678	53708	38878
0	95684	53708	38868
0	95690	53708	38858
0	95696	53708	38848
0	95702	53708	38838
0	95708	53708	38828
0	95714	53708	38818
0	95720	53708	38808
0	95726	53708	38798
0	95732	53708	38788
0	95738	53708	38778
0	95744	53708	38768
0	95750	53708	38758
0	95756	53708	38748
0	95762	53708	38738
0	95768	53708	38728
0	95774	53708	38718
0	95780	53708	38708
0	95786	53708	38698
0	95792	53708	38688
0	95798	53708	38678
0	95804	53708	38668
0	95810	53708	38658
0	95816	53708	38648
0	95822	53708	38638
0	95828	53708	38628
0	95834	53708	38618
0	95840	53708	38608
0	95846	53708	38598
0	95852	53708	38588
0	95858	53708	38578
0	95864	53708	38568
0	95870	53708	38558
0	95876	53708	38548
0	95882	53708	38538
0	95888	53708	38528
0	95894	53708	38518
0	95900	53708	38508
0	95906	53708	38498
0	95912	53708	38488
0	95918	53708	38478
0	95924	53708	38468
0	95930	53708	38458
0	95936	53708	38448
0	95942	53708	38438
0	95948	53708	38428
0	95954	53708	38418
0	95960	53708	38408
0	95966	53708	38398
0	95972	53708	38388
0	95978	53708	38378
0	95984	53708	38368
0	95990	53708	38358
0	95996	53708	38348
0	96002	53708	38338
0	96008	53708	38328
0	96014	53708	38318
0	96020	53708	38308
0	96026	53708	38298
0	96032	53708	38288
0	96038	53708	38278
0	96044	53708	38268
0	96050	53708	38258
0	96056	53708	38248
0	96062	53708	38238
0	96068	53708	38228
0	96074	53708	38218
0	96080	53708	38208
0	96086	53708	38198
0	96092	53708	38188
0	96098	53708	38178
0	96104	53708	38168
0	96110	53708	38158
0	96116	53708	38148
0	96122	53708	38138
0	96128	53708	38128
0	96134	53708	38118
0	96140	53708	38108
0	96146	53708	38098
0	96152	53708	38088
0	96158	53708	38078
0	96164	53708	38068
0	96170	53708	38058
0	96176	53708	38048
0	96182	53708	38038
0	96188	53708	38028
0	96194	53708	38018
0	96200	53708	38008
0	96206	53708	37998
0	96212	53708	37988
0	96218	53708	37978
0	96224	53708	37968
0	96230	53708	37958
0	96236	53708	37948
0	96242	53708	37938
0	96248	53708	37928
0	96254	53708	37918
0	96260	53708	37908
0	96266	53708	37898
0	96272	53708	37888
0	96278	53708	37878
0	96284	53708	37868
0	96290	53708	37858
0	96296	53708	37848
0	96302	53708	37838
0	96308	53708	37828
0	96314	53708	37818
0	96320	53708	37808
0	96326	53708	37798
0	96332	53708	37788
0	96338	53708	37778
0	96344	53708	37768
0	96350	53708	37758
0	96356	53708	37748
0	96362	53708	37738
0	96368	53708	37728
0	96374	53708	37718
0	96380	53708	37708
0	96386	53708	37698
0	96392	53708	37688
0	96398	53708	37678
0	96404	53708	37668
0	96410	53708	37658
0	96416	53708	37648
0	96422	53708	37638
0	96428	53708	37628
0	96434	53708	37618
0	96440	53708	37608
0	96446	53708	37598
0	96452	53708	37588
0	96458	53708	37578
0	96464	53708	37568
0	96470	53708	37558
0	96476	53708	37548
0	96482	53708	37538
0	96488	53708	37528
0	96494	53708	37518
0	96500	53708	37508
0	96506	53708	37498
0	96512	53708	37488
0	96518	53708	37478
0	96524	53708	37468
0	96530	53708	37458
0	96536	53708	37448
0	96542	53708	37438
0	96548	53708	37428
0	96554	53708	37418
0	96560	53708	37408
0	96566	53708	37398
0	96572	53708	37388
0	96578	53708	37378
0	96584	53708	37368
0	96590	53708	37358
0	96596	53708	37348
0	96602	53708	37338
0	96608	53708	37328
0	96614	53708	37318
0	96620	53708	37308
0	96626	53708	37298
0	96632	53708	37288
0	96638	53708	37278
0	96644	53708	37268
0	96650	53708	37258
0	96656	53708	37248
0	96662	53708	37238
0	96668	53708	37228
0	96674	53708	37218
0	96680	53708	37208
0	96686	53708	37198
0	96692	53708	37188
0	96698	53708	37178
0	96704	53708	37168
0	96710	53708	37158
0	96716	53708	37148
0	96722	53708	37138
0	96728	53708	37128
0	96734	53708	37118
0	96740	53708	37108
0	96746	53708	37098
0	96752	53708	37088
0	96758	53708	37078
0	96764	53708	37068
0	96770	53708	37058
0	96776	53708	37048
0	96782	53708	37038
0	96788	53708	37028
0	96794	53708	37018
0	96800	53708	37008
0	96806	53708	36998
0	96812	53708	36988
0	96818	53708	36978
0	96824	53708	36968
0	96830	53708	36958
0	96836	53708	36948
0	96842	53708	36938
0	96848	53708	36928
0	96854	53708	36918
0	96860	53708	36908
0	96866	53708	36898
0	96872	53708	36888
0	96878	53708	36878
0	96884	53708	36868
0	96890	53708	36858
0	96896	53708	36848
0	96902	53708	36838
0	96908	53708	36828
0	96914	53708	36818
0	96920	53708	36808
0	96926	53708	36798
0	96932	53708	36788
0	96938	53708	36778
0	96944	53708	36768
0	96950	53708	36758
0	96956	53708	36748
0	96962	53708	36738
0	96968	53708	36728
0	96974	53708	36718
0	96980	53708	36708
0	96986	53708	36698
0	96992	53708	36688
0	96998	53708	36678
0	97004	53708	36668
0	97010	53708	36658
0	97016	53708	36648
0	97022	53708	36638
0	97028	53708	36628
0	97034	53708	36618
0	97040	53708	36608
0	97046	53708	36598
0	97052	53708	36588
0	97058	53708	36578
0	97064	53708	36568
0	97070	53708	36558
0	97076	53708	36548
0	97082	53708	36538
0	97088	53708	36528
0	97094	53708	36518
0	97100	53708	36508
0	97106	53708	36498
0	97112	53708	36488
0	97118	53708	36478
0	97124	53708	36468
0	97130	53708	36458
0	97136	53708	36448
0	97142	53708	36438
0	97148	53708	36428
0	97154	53708	36418
0	97160	53708	36408
0	97166	53708	36398
0	97172	53708	36388
0	97178	53708	36378
0	97184	53708	36368
0	97190	53708	36358
0	97196	53708	36348
0	97202	53708	36338
0	97208	53708	36328
0	97214	53708	36318
0	97220	53708	36308
0	97226	53708	36298
0	97232	53708	36288
0	97238	53708	36278
0	97244	53708	36268
0	97250	53708	36258
0	97256	53708	36248
0	97262	53708	36238
0	97268	53708	36228
0	97274	53708	36218
0	97280	53708	36208
0	97286	53708	36198
0	97292	53708	36188
0	97298	53708	36178
0	97304	53708	36168
0	97310	53708	36158
0	97316	53708	36148
0	97322	53708	36138
0	97328	53708	36128
0	97334	53708	36118
0	97340	53708	36108
0	97346	53708	36098
0	97352	53708	36088
0	97358	53708	36078
0	97364	53708	36068
0	97370	53708	36058
0	97376	53708	36048
0	97382	53708	36038
0	97388	53708	36028
0	97394	53708	36018
0	97400	53708	36008
0	97406	53708	35998
0	97412	53708	35988
0	97418	53708	35978
0	97424	53708	35968
0	97430	53708	35958
0	97436	53708	35948
0	97442	53708	35938
0	97448	53708	35928
0	97454	53708	35918
0	97460	53708	35908
0	97466	53708	35898
0	97472	53708	35888
0	97478	53708	35878
0	97484	53708	35868
0	97490	53708	35858
0	97496	53708	35848
0	97502	53708	35838
0	97508	53708	35828
0	97514	53708	35818
0	97520	53708	35808
0	97526	53708	35798
0	97532	53708	35788
0	97538	53708	35778
0	97544	53708	35768
0	97550	53708	35758
0	97556	53708	35748
0	97562	53708	35738
0	97568	53708	35728
0	97574	53708	35718
0	97580	53708	35708
0	97586	53708	35698
0	97592	53708	35688
0	97598	53708	35678
0	97604	53708	35668
0	97610	53708	35658
0	97616	53708	35648
0	97622	53708	35638
0	97628	53708	35628
0	97634	53708	35618
0	97640	53708	35608
0	97646	53708	35598
0	97652	53708	35588
0	97658	53708	35578
0	97664	53708	35568
0	97670	53708	35558
0	97676	53708	35548
0	97682	53708	35538
0	97688	53708	35528
0	97694	53708	35518
0	97700	53708	35508
0	97706	53708	35498
0	97712	53708	35488
0	97718	53708	35478
0	97724	53708	35468
0	97730	53708	35458
0	97736	53708	35448
0	97742	53708	35438
0	97748	53708	35428
0	97754	53708	35418
0	97760	53708	35408
0	97766	53708	35398
0	97772	53708	35388
0	97778	53708	35378
0	97784	53708	35368
0	97790	53708	35358
0	97796	53708	35348
0	97802	53708	35338
0	97808	53708	35328
0	97814	53708	35318
0	97820	53708	35308
0	97826	53708	35298
0	97832	53708	35288
0	97838	53708	35278
0	97844	53708	35268
0	97850	53708	35258
0	97856	53708	35248
0	97862	53708	35238
0	97868	53708	35228
0	97874	53708	35218
0	97880	53708	35208
0	97886	53708	35198
0	97892	53708	35188
0	97898	53708	35178
0	97904	53708	35168
0	97910	53708	35158
0	97916	53708	35148
0	97922	53708	35138
0	97928	53708	35128
0	97934	53708	35118
0	97940	53708	35108
0	97946	53708	35098
0	97952	53708	35088
0	97958	53708	35078
0	97964	53708	35068
0	97970	53708	35058
0	97976	53708	35048
0	97982	53708	35038
0	97988	53708	35028
0	97994	53708	35018
0	98000	53708	35008
0	98006	53708	34998
0	98012	53708	34988
0	98018	53708	34978
0	98024	53708	34968
0	98030	53708	34958
0	98036	53708	34948
0	98042	53708	34938
0	98048	53708	34928
0	98054	53708	34918
0	98060	53708	34908
0	98066	53708	34898
0	98072	53708	34888
0	98078	53708	34878
0	98084	53708	34868
0	98090	53708	34858
0	98096	53708	34848
0	98102	53708	34838
0	98108	53708	34828
0	98114	53708	34818
0	98120	53708	34808
0	98126	53708	34798
0	98132	53708	34788
0	98138	53708	34778
0	98144	53708	34768
0	98150	53708	34758
0	98156	53708	34748
0	98162	53708	34738
0	98168	53708	34728
0	98174	53708	34718
0	98180	53708	34708
0	98186	53708	34698
0	98192	53708	34688
0	98198	53708	34678
0	98204	53708	34668
0	98210	53708	34658
0	98216	53708	34648
0	98222	53708	34638
0	98228	53708	34628
0	98234	53708	34618
0	98240	53708	34608
0	98246	53708	34598
0	98252	53708	34588
0	98258	53708	34578
0	98264	53708	34568
0	98270	53708	34558
0	98276	53708	34548
0	98282	53708	34538
0	98288	53708	34528
0	98294	53708	34518
0	98300	53708	34508
0	98306	53708	34498
0	98312	53708	34488
0	98318	53708	34478
0	98324	53708	34468
0	98330	53708	34458
0	98336	53708	34448
0	98342	53708	34438
0	98348	53708	34428
0	98354	53708	34418
0	98360	53708	34408
0	98366	53708	34398
0	98372	53708	34388
0	98378	53708	34378
0	98384	53708	34368
0	98390	53708	34358
0	98396	53708	34348
0	98402	53708	34338
0	98408	53708	34328
0	98414	53708	34318
0	98420	53708	34308
0	98426	53708	34298
0	98432	53708	34288
0	98438	53708	34278
0	98444	53708	34268
0	98450	53708	34258
0	98456	53708	34248
0	98462	53708	34238
0	98468	53708	34228
0	98474	53708	34218
0	98480	53708	34208
0	98486	53708	34198
0	98492	53708	34188
0	98498	53708	34178
0	98504	53708	34168
0	98510	53708	34158
0	98516	53708	34148
0	98522	53708	34138
0	98528	53708	34128
0	98534	53708	34118
0	98540	53708	34108
0	98546	53708	34098
0	98552	53708	34088
0	98558	53708	34078
0	98564	53708	34068
0	98570	53708	34058
0	98576	53708	34048
0	98582	53708	34038
0	98588	53708	34028
0	98594	53708	34018
0	98600	53708	34008
0	98606	53708	33998
0	98612	53708	33988
0	98618	53708	33978
0	98624	53708	33968
0	98630	53708	33958
0	98636	53708	33948
0	98642	53708	33938
0	98648	53708	33928
0	98654	53708	33918
0	98660	53708	33908
0	98666	53708	33898
0	98672	53708	33888
0	98678	53708	33878
0	98684	53708	33868
0	98690	53708	33858
0	98696	53708	33848
0	98702	53708	33838
0	98708	53708	33828
0	98714	53708	33818
0	98720	53708	33808
0	98726	53708	33798
0	98732	53708	33788
0	98738	53708	33778
0	98744	53708	33768
0	98750	53708	33758
0	98756	53708	33748
0	98762	53708	33738
0	98768	53708	33728
0	98774	53708	33718
0	98780	53708	33708
0	98786	53708	33698
0	98792	53708	33688
0	98798	53708	33678
0	98804	53708	33668
0	98810	53708	33658
0	98816	53708	33648
0	98822	53708	33638
0	98828	53708	33628
0	98834	53708	33618
0	98840	53708	33608
0	98846	53708	33598
0	98852	53708	33588
0	98858	53708	33578
0	98864	53708	33568
0	98870	53708	33558
0	98876	53708	33548
0	98882	53708	33538
0	98888	53708	33528
0	98894	53708	33518
0	98900	53708	33508
0	98906	53708	33498
0	98912	53708	33488
0	98918	53708	33478
0	98924	53708	33468
0	98930	53708	33458
0	98936	53708	33448
0	98942	53708	33438
0	98948	53708	33428
0	98954	53708	33418
0	98960	53708	33408
0	98966	53708	33398
0	98972	53708	33388
0	98978	53708	33378
0	98984	53708	33368
0	98990	53708	33358
0	98996	53708	33348
0	99002	53708	33338
0	99008	53708	33328
0	99014	53708	33318
0	99020	53708	33308
0	99026	53708	33298
0	99032	53708	33288
0	99038	53708	33278
0	99044	53708	33268
0	99050	53708	33258
0	99056	53708	33248
0	99062	53708	33238
0	99068	53708	33228
0	99074	53708	33218
0	99080	53708	33208
0	99086	53708	33198
0	99092	53708	33188
0	99098	53708	33178
0	99104	53708	33168
0	99110	53708	33158
0	99116	53708	33148
0	99122	53708	33138
0	99128	53708	33128
0	99134	53708	33118
0	99140	53708	33108
0	99146	53708	33098
0	99152	53708	33088
0	99158	53708	33078
0	99164	53708	33068
0	99170	53708	33058
0	99176	53708	33048
0	99182	53708	33038
0	99188	53708	33028
0	99194	53708	33018
0	99200	53708	33008
0	99206	53708	32998
0	99212	53708	32988
0	99218	53708	32978
0	99224	53708	32968
0	99230	53708	32958
0	99236	53708	32948
0	99242	53708	32938
0	99248	53708	32928
0	99254	53708	32918
0	99260	53708	32908
0	99266	53708	32898
0	99272	53708	32888
0	99278	53708	32878
0	99284	53708	32868
0	99290	53708	32858
0	99296	53708	32848
0	99302	53708	32838
0	99308	53708	32828
0	99314	53708	32818
0	99320	53708	32808
0	99326	53708	32798
0	99332	53708	32788
0	99338	53708	32778
0	99344	53708	32768
0	99350	53708	32758
0	99356	53708	32748
0	99362	53708	32738
0	99368	53708	32728
0	99374	53708	32718
0	99380	53708	32708
0	99386	53708	32698
0	99392	53708	32688
0	99398	53708	32678
0	99404	53708	32668
0	99410	53708	32658
0	99416	53708	32648
0	99422	53708	32638
0	99428	53708	32628
0	99434	53708	32618
0	99440	53708	32608
0	99446	53708	32598
0	99452	53708	32588
0	99458	53708	32578
0	99464	53708	32568
0	99470	53708	32558
0	99476	53708	32548
0	99482	53708	32538
0	99488	53708	32528
0	99494	53708	32518
0	99500	53708	32508
0	99506	53708	32498
0	99512	53708	32488
0	99518	53708	32478
0	99524	53708	32468
0	99530	53708	32458
0	99536	53708	32448
0	99542	53708	32438
0	99548	53708	32428
0	99554	53708	32418
0	99560	53708	32408
0	99566	53708	32398
0	99572	53708	32388
0	99578	53708	32378
0	99584	53708	32368
0	99590	53708	32358
0	99596	53708	32348
0	99602	53708	32338
0	99608	53708	32328
0	99614	53708	32318
0	99620	53708	32308
0	99626	53708	32298
0	99632	53708	32288
0	99638	53708	32278
0	99644	53708	32268
0	99650	53708	32258
0	99656	53708	32248
0	99662	53708	32238
0	99668	53708	32228
0	99674	53708	32218
0	99680	53708	32208
0	99686	53708	32198
0	99692	53708	32188
0	99698	53708	32178
0	99704	53708	32168
0	99710	53708	32158
0	99716	53708	32148
0	99722	53708	32138
0	99728	53708	32128
0	99734	53708	32118
0	99740	53708	32108
0	99746	53708	32098
0	99752	53708	32088
0	99758	53708	32078
0	99764	53708	32068
0	99770	53708	32058
0	99776	53708	32048
0	99782	53708	32038
0	99788	53708	32028
0	99794	53708	32018
0	99800	53708	32008
0	99806	53708	31998
0	99812	53708	31988
0	99818	53708	31978
0	99824	53708	31968
0	99830	53708	31958
0	99836	53708	31948
0	99842	53708	31938
0	99848	53708	31928
0	99854	53708	31918
0	99860	53708	31908
0	99866	53708	31898
0	99872	53708	31888
0	99878	53708	31878
0	99884	53708	31868
0	99890	53708	31858
0	99896	53708	31848
0	99902	53708	31838
0	99908	53708	31828
0	99914	53708	31818
0	99920	53708	31808
0	99926	53708	31798
0	99932	53708	31788
0	99938	53708	31778
0	99944	53708	31768
0	99950	53708	31758
0	99956	53708	31748
0	99962	53708	31738
0	99968	53708	31728
0	99974	53708	31718
0	99980	53708	31708
0	99986	53708	31698
0	99992	53708	31688
0	99998	53708	31678
0	100004	53708	31668
0	100010	53708	31658
0	100016	53708	31648
0	100022	53708	31638
0	100028	53708	31628
0	100034	53708	31618
0	100040	53708	31608
0	100046	53708	31598
0	100052	53708	31588
0	100058	53708	31578
0	100064	53708	31568
0	100070	53708	31558
0	100076	53708	31548
0	100082	53708	31538
0	100088	53708	31528
0	100094	53708	31518
0	100100	53708	31508
0	100106	53708	31498
0	100112	53708	31488
0	100118	53708	31478
0	100124	53708	31468
0	100130	53708	31458
0	100136	53708	31448
0	100142	53708	31438
0	100148	53708	31428
0	100154	53708	31418
0	100160	53708	31408
0	100166	53708	31398
0	100172	53708	31388
0	100178	53708	31378
0	100184	53708	31368
0	100190	53708	31358
0	100196	53708	31348
0	100202	53708	31338
0	100208	53708	31328
0	100214	53708	31318
0	100220	53708	31308
0	100226	53708	31298
0	100232	53708	31288
0	100238	53708	31278
0	100244	53708	31268
0	100250	53708	31258
0	100256	53708	31248
0	100262	53708	31238
0	100268	53708	31228
0	100274	53708	31218
0	100280	53708	31208
0	100286	53708	31198
0	100292	53708	31188
0	100298	53708	31178
0	100304	53708	31168
0	100310	53708	31158
0	100316	53708	31148
0	100322	53708	31138
0	100328	53708	31128
0	100334	53708	31118
0	100340	53708	31108
0	100346	53708	31098
0	100352	53708	31088
0	100358	53708	31078
0	100364	53708	31068
0	100370	53708	31058
0	100376	53708	31048
0	100382	53708	31038
0	100388	53708	31028
0	100394	53708	31018
0	100400	53708	31008
0	100406	53708	30998
0	100412	53708	30988
0	100418	53708	30978
0	100424	53708	30968
0	100430	53708	30958
0	100436	53708	30948
0	100442	53708	30938
0	100448	53708	30928
0	100454	53708	30918
0	100460	53708	30908
0	100466	53708	30898
0	100472	53708	30888
0	100478	53708	30878
0	100484	53708	30868
0	100490	53708	30858
0	100496	53708	30848
0	100502	53708	30838
0	100508	53708	30828
0	100514	53708	30818
0	100520	53708	30808
0	100526	53708	30798
0	100532	53708	30788
0	100538	53708	30778
0	100544	53708	30768
0	100550	53708	30758
0	100556	53708	30748
0	100562	53708	30738
0	100568	53708	30728
0	100574	53708	30718
0	100580	53708	30708
0	100586	53708	30698
0	100592	53708	30688
0	100598	53708	30678
0	100604	53708	30668
0	100610	53708	30658
0	100616	53708	30648
0	100622	53708	30638
0	100628	53708	30628
0	100634	53708	30618
0	100640	53708	30608
0	100646	53708	30598
0	100652	53708	30588
0	100658	53708	30578
0	100664	53708	30568
0	100670	53708	30558
0	100676	53708	30548
0	100682	53708	30538
0	100688	53708	30528
0	100694	53708	30518
0	100700	53708	30508
0	100706	53708	30498
0	100712	53708	30488
0	100718	53708	30478
0	100724	53708	30468
0	100730	53708	30458
0	100736	53708	30448
0	100742	53708	30438
0	100748	53708	30428
0	100754	53708	30418
0	100760	53708	30408
0	100766	53708	30398
0	100772	53708	30388
0	100778	53708	30378
0	100784	53708	30368
0	100790	53708	30358
0	100796	53708	30348
0	100802	53708	30338
0	100808	53708	30328
0	100814	53708	30318
0	100820	53708	30308
0	100826	53708	30298
0	100832	53708	30288
0	100838	53708	30278
0	100844	53708	30268
0	100850	53708	30258
0	100856	53708	30248
0	100862	53708	30238
0	100868	53708	30228
0	100874	53708	30218
0	100880	53708	30208
0	100886	53708	30198
0	100892	53708	30188
0	100898	53708	30178
0	100904	53708	30168
0	100910	53708	30158
0	100916	53708	30148
0	100922	53708	30138
0	100928	53708	30128
0	100934	53708	30118
0	100940	53708	30108
0	100946	53708	30098
0	100952	53708	30088
0	100958	53708	30078
0	100964	53708	30068
0	100970	53708	30058
0	100976	53708	30048
0	100982	53708	30038
0	100988	53708	30028
0	100994	53708	30018
0	101000	53708	30008
0	101006	53708	29998
0	101012	53708	29988
0	101018	53708	29978
0	101024	53708	29968
0	101030	53708	29958
0	101036	53708	29948
0	101042	53708	29938
0	101048	53708	29928
0	101054	53708	29918
0	101060	53708	29908
0	101066	53708	29898
0	101072	53708	29888
0	101078	53708	29878
0	101084	53708	29868
0	101090	53708	29858
0	101096	53708	29848
0	101102	53708	29838
0	101108	53708	29828
0	101114	53708	29818
0	101120	53708	29808
0	101126	53708	29798
0	101132	53708	29788
0	101138	53708	29778
0	101144	53708	29768
0	101150	53708	29758
0	101156	53708	29748
0	101162	53708	29738
0	101168	53708	29728
0	101174	53708	29718
0	101180	53708	29708
0	101186	53708	29698
0	101192	53708	29688
0	101198	53708	29678
0	101204	53708	29668
0	101210	53708	29658
0	101216	53708	29648
0	101222	53708	29638
0	101228	53708	29628
0	101234	53708	29618
0	101240	53708	29608
0	101246	53708	29598
0	101252	53708	29588
0	101258	53708	29578
0	101264	53708	29568
0	101270	53708	29558
0	101276	53708	29548
0	101282	53708	29538
0	101288	53708	29528
0	101294	53708	29518
0	101300	53708	29508
0	101306	53708	29498
0	101312	53708	29488
0	101318	53708	29478
0	101324	53708	29468
0	101330	53708	29458
0	101336	53708	29448
0	101342	53708	29438
0	101348	53708	29428
0	101354	53708	29418
0	101360	53708	29408
0	101366	53708	29398
0	101372	53708	29388
0	101378	53708	29378
0	101384	53708	29368
0	101390	53708	29358
0	101396	53708	29348
0	101402	53708	29338
0	101408	53708	29328
0	101414	53708	29318
0	101420	53708	29308
0	101426	53708	29298
0	101432	53708	29288
0	101438	53708	29278
0	101444	53708	29268
0	101450	53708	29258
0	101456	53708	29248
0	101462	53708	29238
0	101468	53708	29228
0	101474	53708	29218
0	101480	53708	29208
0	101486	53708	29198
0	101492	53708	29188
0	101498	53708	29178
0	101504	53708	29168
0	101510	53708	29158
0	101516	53708	29148
0	101522	53708	29138
0	101528	53708	29128
0	101534	53708	29118
0	101540	53708	29108
0	101546	53708	29098
0	101552	53708	29088
0	101558	53708	29078
0	101564	53708	29068
0	101570	53708	29058
0	101576	53708	29048
0	101582	53708	29038
0	101588	53708	29028
0	101594	53708	29018
0	101600	53708	29008
0	101606	53708	28998
0	101612	53708	28988
0	101618	53708	28978
0	101624	53708	28968
0	101630	53708	28958
0	101636	53708	28948
0	101642	53708	28938
0	101648	53708	28928
0	101654	53708	28918
0	101660	53708	28908
0	101666	53708	28898
0	101672	53708	28888
0	101678	53708	28878
0	101684	53708	28868
0	101690	53708	28858
0	101696	53708	28848
0	101702	53708	28838
0	101708	53708	28828
0	101714	53708	28818
0	101720	53708	28808
0	101726	53708	28798
0	101732	53708	28788
0	101738	53708	28778
0	101744	53708	28768
0	101750	53708	28758
0	101756	53708	28748
0	101762	53708	28738
0	101768	53708	28728
0	101774	53708	28718
0	101780	53708	28708
0	101786	53708	28698
0	101792	53708	28688
0	101798	53708	28678
0	101804	53708	28668
0	101810	53708	28658
0	101816	53708	28648
0	101822	53708	28638
0	101828	53708	28628
0	101834	53708	28618
0	101840	53708	28608
0	101846	53708	28598
0	101852	53708	28588
0	101858	53708	28578
0	101864	53708	28568
0	101870	53708	28558
0	101876	53708	28548
0	101882	53708	28538
0	101888	53708	28528
0	101894	53708	28518
0	101900	53708	28508
0	101906	53708	28498
0	101912	53708	28488
0	101918	53708	28478
0	101924	53708	28468
0	101930	53708	28458
0	101936	53708	28448
0	101942	53708	28438
0	101948	53708	28428
0	101954	53708	28418
0	101960	53708	28408
0	101966	53708	28398
0	101972	53708	28388
0	101978	53708	28378
0	101984	53708	28368
0	101990	53708	28358
0	101996	53708	28348
0	102002	53708	28338
0	102008	53708	28328
0	102014	53708	28318
0	102020	53708	28308
0	102026	53708	28298
0	102032	53708	28288
0	102038	53708	28278
0	102044	53708	28268
0	102050	53708	28258
0	102056	53708	28248
0	102062	53708	28238
0	102068	53708	28228
0	102074	53708	28218
0	102080	53708	28208
0	102086	53708	28198
0	102092	53708	28188
0	102098	53708	28178
0	102104	53708	28168
0	102110	53708	28158
0	102116	53708	28148
0	102122	53708	28138
0	102128	53708	28128
0	102134	53708	28118
0	102140	53708	28108
0	102146	53708	28098
0	102152	53708	28088
0	102158	53708	28078
0	102164	53708	28068
0	102170	53708	28058
0	102176	53708	28048
0	102182	53708	28038
0	102188	53708	28028
0	102194	53708	28018
0	102200	53708	28008
0	102206	53708	27998
0	102212	53708	27988
0	102218	53708	27978
0	102224	53708	27968
0	102230	53708	27958
0	102236	53708	27948
0	102242	53708	27938
0	102248	53708	27928
0	102254	53708	27918
0	102260	53708	27908
0	102266	53708	27898
0	102272	53708	27888
0	102278	53708	27878
0	102284	53708	27868
0	102290	53708	27858
0	102296	53708	27848
0	102302	53708	27838
0	102308	53708	27828
0	102314	53708	27818
0	102320	53708	27808
0	102326	53708	27798
0	102332	53708	27788
0	102338	53708	27778
0	102344	53708	27768
0	102350	53708	27758
0	102356	53708	27748
0	102362	53708	27738
0	102368	53708	27728
0	102374	53708	27718
0	102380	53708	27708
0	102386	53708	27698
0	102392	53708	27688
0	102398	53708	27678
0	102404	53708	27668
0	102410	53708	27658
0	102416	53708	27648
0	102422	53708	27638
0	102428	53708	27628
0	102434	53708	27618
0	102440	53708	27608
0	102446	53708	27598
0	102452	53708	27588
0	102458	53708	27578
0	102464	53708	27568
0	102470	53708	27558
0	102476	53708	27548
0	102482	53708	27538
0	102488	53708	27528
0	102494	53708	27518
0	102500	53708	27508
0	102506	53708	27498
0	102512	53708	27488
0	102518	53708	27478
0	102524	53708	27468
0	102530	53708	27458
0	102536	53708	27448
0	102542	53708	27438
0	102548	53708	27428
0	102554	53708	27418
0	102560	53708	27408
0	102566	53708	27398
0	102572	53708	27388
0	102578	53708	27378
0	102584	53708	27368
0	102590	53708	27358
0	102596	53708	27348
0	102602	53708	27338
0	102608	53708	27328
0	102614	53708	27318
0	102620	53708	27308
0	102626	53708	27298
0	102632	53708	27288
0	102638	53708	27278
0	102644	53708	27268
0	102650	53708	27258
0	102656	53708	27248
0	102662	53708	27238
0	102668	53708	27228
0	102674	53708	27218
0	102680	53708	27208
0	102686	53708	27198
0	102692	53708	27188
0	102698	53708	27178
0	102704	53708	27168
0	102710	53708	27158
0	102716	53708	27148
0	102722	53708	27138
0	102728	53708	27128
0	102734	53708	27118
0	102740	53708	27108
0	102746	53708	27098
0	102752	53708	27088
0	102758	53708	27078
0	102764	53708	27068
0	102770	53708	27058
0	102776	53708	27048
0	102782	53708	27038
0	102788	53708	27028
0	102794	53708	27018
0	102800	53708	27008
0	102806	53708	26998
0	102812	53708	26988
0	102818	53708	26978
0	102824	53708	26968
0	102830	53708	26958
0	102836	53708	26948
0	102842	53708	26938
0	102848	53708	26928
0	102854	53708	26918
0	102860	53708	26908
0	102866	53708	26898
0	102872	53708	26888
0	102878	53708	26878
0	102884	53708	26868
0	102890	53708	26858
0	102896	53708	26848
0	102902	53708	26838
0	102908	53708	26828
0	102914	53708	26818
0	102920	53708	26808
0	102926	53708	26798
0	102932	53708	26788
0	102938	53708	26778
0	102944	53708	26768
0	102950	53708	26758
0	102956	53708	26748
0	102962	53708	26738
0	102968	53708	26728
0	102974	53708	26718
0	102980	53708	26708
0	102986	53708	26698
0	102992	53708	26688
0	102998	53708	26678
0	103004	53708	26668
0	103010	53708	26658
0	103016	53708	26648
0	103022	53708	26638
0	103028	53708	26628
0	103034	53708	26618
0	103040	53708	26608
0	103046	53708	26598
0	103052	53708	26588
0	103058	53708	26578
0	103064	53708	26568
0	103070	53708	26558
0	103076	53708	26548
0	103082	53708	26538
0	103088	53708	26528
0	103094	53708	26518
0	103100	53708	26508
0	103106	53708	26498
0	103112	53708	26488
0	103118	53708	26478
0	103124	53708	26468
0	103130	53708	26458
0	103136	53708	26448
0	103142	53708	26438
0	103148	53708	26428
0	103154	53708	26418
0	103160	53708	26408
0	103166	53708	26398
0	103172	53708	26388
0	103178	53708	26378
0	103184	53708	26368
0	103190	53708	26358
0	103196	53708	26348
0	103202	53708	26338
0	103208	53708	26328
0	103214	53708	26318
0	103220	53708	26308
0	103226	53708	26298
0	103232	53708	26288
0	103238	53708	26278
0	103244	53708	26268
0	103250	53708	26258
0	103256	53708	26248
0	103262	53708	26238
0	103268	53708	26228
0	103274	53708	26218
0	103280	53708	26208
0	103286	53708	26198
0	103292	53708	26188
0	103298	53708	26178
0	103304	53708	26168
0	103310	53708	26158
0	103316	53708	26148
0	103322	53708	26138
0	103328	53708	26128
0	103334	53708	26118
0	103340	53708	26108
0	103346	53708	26098
0	103352	53708	26088
0	103358	53708	26078
0	103364	53708	26068
0	103370	53708	26058
0	103376	53708	26048
0	103382	53708	26038
0	103388	53708	26028
0	103394	53708	26018
0	103400	53708	26008
0	103406	53708	25998
0	103412	53708	25988
0	103418	53708	25978
0	103424	53708	25968
0	103430	53708	25958
0	103436	53708	25948
0	103442	53708	25938
0	103448	53708	25928
0	103454	53708	25918
0	103460	53708	25908
0	103466	53708	25898
0	103472	53708	25888
0	103478	53708	25878
0	103484	53708	25868
0	103490	53708	25858
0	103496	53708	25848
0	103502	53708	25838
0	103508	53708	25828
0	103514	53708	25818
0	103520	53708	25808
0	103526	53708	25798
0	103532	53708	25788
0	103538	53708	25778
0	103544	53708	25768
0	103550	53708	25758
0	103556	53708	25748
0	103562	53708	25738
0	103568	53708	25728
0	103574	53708	25718
0	103580	53708	25708
0	103586	53708	25698
0	103592	53708	25688
0	103598	53708	25678
0	103604	53708	25668
0	103610	53708	25658
0	103616	53708	25648
0	103622	53708	25638
0	103628	53708	25628
0	103634	53708	25618
0	103640	53708	25608
0	103646	53708	25598
0	103652	53708	25588
0	103658	53708	25578
0	103664	53708	25568
0	103670	53708	25558
0	103676	53708	25548
0	103682	53708	25538
0	103688	53708	25528
0	103694	53708	25518
0	103700	53708	25508
0	103706	53708	25498
0	103712	53708	25488
0	103718	53708	25478
0	103724	53708	25468
0	103730	53708	25458
0	103736	53708	25448
0	103742	53708	25438
0	103748	53708	25428
0	103754	53708	25418
0	103760	53708	25408
0	103766	53708	25398
0	103772	53708	25388
0	103778	53708	25378
0	103784	53708	25368
0	103790	53708	25358
0	103796	53708	25348
0	103802	53708	25338
0	103808	53708	25328
0	103814	53708	25318
0	103820	53708	25308
0	103826	53708	25298
0	103832	53708	25288
0	103838	53708	25278
0	103844	53708	25268
0	103850	53708	25258
0	103856	53708	25248
0	103862	53708	25238
0	103868	53708	25228
0	103874	53708	25218
0	103880	53708	25208
0	103886	53708	25198
0	103892	53708	25188
0	103898	53708	25178
0	103904	53708	25168
0	103910	53708	25158
0	103916	53708	25148
0	103922	53708	25138
0	103928	53708	25128
0	103934	53708	25118
0	103940	53708	25108
0	103946	53708	25098
0	103952	53708	25088
0	103958	53708	25078
0	103964	53708	25068
0	103970	53708	25058
0	103976	53708	25048
0	103982	53708	25038
0	103988	53708	25028
0	103994	53708	25018
0	104000	53708	25008
0	104006	53708	24998
0	104012	53708	24988
0	104018	53708	24978
0	104024	53708	24968
0	104030	53708	24958
0	104036	53708	24948
0	104042	53708	24938
0	104048	53708	24928
0	104054	53708	24918
0	104060	53708	24908
0	104066	53708	24898
0	104072	53708	24888
0	104078	53708	24878
0	104084	53708	24868
0	104090	53708	24858
0	104096	53708	24848
0	104102	53708	24838
0	104108	53708	24828
0	104114	53708	24818
0	104120	53708	24808
0	104126	53708	24798
0	104132	53708	24788
0	104138	53708	24778
0	104144	53708	24768
0	104150	53708	24758
0	104156	53708	24748
0	104162	53708	24738
0	104168	53708	24728
0	104174	53708	24718
0	104180	53708	24708
0	104186	53708	24698
0	104192	53708	24688
0	104198	53708	24678
0	104204	53708	24668
0	104210	53708	24658
0	104216	53708	24648
0	104222	53708	24638
0	104228	53708	24628
0	104234	53708	24618
0	104240	53708	24608
0	104246	53708	24598
0	104252	53708	24588
0	104258	53708	24578
0	104264	53708	24568
0	104270	53708	24558
0	104276	53708	24548
0	104282	53708	24538
0	104288	53708	24528
0	104294	53708	24518
0	104300	53708	24508
0	104306	53708	24498
0	104312	53708	24488
0	104318	53708	24478
0	104324	53708	24468
0	104330	53708	24458
0	104336	53708	24448
0	104342	53708	24438
0	104348	53708	24428
0	104354	53708	24418
0	104360	53708	24408
0	104366	53708	24398
0	104372	53708	24388
0	104378	53708	24378
0	104384	53708	24368
0	104390	53708	24358
0	104396	53708	24348
0	104402	53708	24338
0	104408	53708	24328
0	104414	53708	24318
0	104420	53708	24308
0	104426	53708	24298
0	104432	53708	24288
0	104438	53708	24278
0	104444	53708	24268
0	104450	53708	24258
0	104456	53708	24248
0	104462	53708	24238
0	104468	53708	24228
0	104474	53708	24218
0	104480	53708	24208
0	104486	53708	24198
0	104492	53708	24188
0	104498	53708	24178
0	104504	53708	24168
0	104510	53708	24158
0	104516	53708	24148
0	104522	53708	24138
0	104528	53708	24128
0	104534	53708	24118
0	104540	53708	24108
0	104546	53708	24098
0	104552	53708	24088
0	104558	53708	24078
0	104564	53708	24068
0	104570	53708	24058
0	104576	53708	24048
0	104582	53708	24038
0	104588	53708	24028
0	104594	53708	24018
0	104600	53708	24008
0	104606	53708	23998
0	104612	53708	23988
0	104618	53708	23978
0	104624	53708	23968
0	104630	53708	23958
0	104636	53708	23948
0	104642	53708	23938
0	104648	53708	23928
0	104654	53708	23918
0	104660	53708	23908
0	104666	53708	23898
0	104672	53708	23888
0	104678	53708	23878
0	104684	53708	23868
0	104690	53708	23858
0	104696	53708	23848
0	104702	53708	23838
0	104708	53708	23828
0	104714	53708	23818
0	104720	53708	23808
0	104726	53708	23798
0	104732	53708	23788
0	104738	53708	23778
0	104744	53708	23768
0	104750	53708	23758
0	104756	53708	23748
0	104762	53708	23738
0	104768	53708	23728
0	104774	53708	23718
0	104780	53708	23708
0	104786	53708	23698
0	104792	53708	23688
0	104798	53708	23678
0	104804	53708	23668
0	104810	53708	23658
0	104816	53708	23648
0	104822	53708	23638
0	104828	53708	23628
0	104834	53708	23618
0	104840	53708	23608
0	104846	53708	23598
0	104852	53708	23588
0	104858	53708	23578
0	104864	53708	23568
0	104870	53708	23558
0	104876	53708	23548
0	104882	53708	23538
0	104888	53708	23528
0	104894	53708	23518
0	104900	53708	23508
0	104906	53708	23498
0	104912	53708	23488
0	104918	53708	23478
0	104924	53708	23468
0	104930	53708	23458
0	104936	53708	23448
0	104942	53708	23438
0	104948	53708	23428
0	104954	53708	23418
0	104960	53708	23408
0	104966	53708	23398
0	104972	53708	23388
0	104978	53708	23378
0	104984	53708	23368
0	104990	53708	23358
0	104996	53708	23348
0	105002	53708	23338
0	105008	53708	23328
0	105014	53708	23318
0	105020	53708	23308
0	105026	53708	23298
0	105032	53708	23288
0	105038	53708	23278
0	105044	53708	23268
0	105050	53708	23258
0	105056	53708	23248
0	105062	53708	23238
0	105068	53708	23228
0	105074	53708	23218
0	105080	53708	23208
0	105086	53708	23198
0	105092	53708	23188
0	105098	53708	23178
0	105104	53708	23168
0	105110	53708	23158
0	105116	53708	23148
0	105122	53708	23138
0	105128	53708	23128
0	105134	53708	23118
0	105140	53708	23108
0	105146	53708	23098
0	105152	53708	23088
0	105158	53708	23078
0	105164	53708	23068
0	105170	53708	23058
0	105176	53708	23048
0	105182	53708	23038
0	105188	53708	23028
0	105194	53708	23018
0	105200	53708	23008
0	105206	53708	22998
0	105212	53708	22988
0	105218	53708	22978
0	105224	53708	22968
0	105230	53708	22958
0	105236	53708	22948
0	105242	53708	22938
0	105248	53708	22928
0	105254	53708	22918
0	105260	53708	22908
0	105266	53708	22898
0	105272	53708	22888
0	105278	53708	22878
0	105284	53708	22868
0	105290	53708	22858
0	105296	53708	22848
0	105302	53708	22838
0	105308	53708	22828
0	105314	53708	22818
0	105320	53708	22808
0	105326	53708	22798
0	105332	53708	22788
0	105338	53708	22778
0	105344	53708	22768
0	105350	53708	22758
0	105356	53708	22748
0	105362	53708	22738
0	105368	53708	22728
0	105374	53708	22718
0	105380	53708	22708
0	105386	53708	22698
0	105392	53708	22688
0	105398	53708	22678
0	105404	53708	22668
0	105410	53708	22658
0	105416	53708	22648
0	105422	53708	22638
0	105428	53708	22628
0	105434	53708	22618
0	105440	53708	22608
0	105446	53708	22598
0	105452	53708	22588
0	105458	53708	22578
0	105464	53708	22568
0	105470	53708	22558
0	105476	53708	22548
0	105482	53708	22538
0	105488	53708	22528
0	105494	53708	22518
0	105500	53708	22508
0	105506	53708	22498
0	105512	53708	22488
0	105518	53708	22478
0	105524	53708	22468
0	105530	53708	22458
0	105536	53708	22448
0	105542	53708	22438
0	105548	53708	22428
0	105554	53708	22418
0	105560	53708	22408
0	105566	53708	22398
0	105572	53708	22388
0	105578	53708	22378
0	105584	53708	22368
0	105590	53708	22358
0	105596	53708	22348
0	105602	53708	22338
0	105608	53708	22328
0	105614	53708	22318
0	105620	53708	22308
0	105626	53708	22298
0	105632	53708	22288
0	105638	53708	22278
0	105644	53708	22268
0	105650	53708	22258
0	105656	53708	22248
0	105662	53708	22238
0	105668	53708	22228
0	105674	53708	22218
0	105680	53708	22208
0	105686	53708	22198
0	105692	53708	22188
0	105698	53708	22178
0	105704	53708	22168
0	105710	53708	22158
0	105716	53708	22148
0	105722	53708	22138
0	105728	53708	22128
0	105734	53708	22118
0	105740	53708	22108
0	105746	53708	22098
0	105752	53708	22088
0	105758	53708	22078
0	105764	53708	22068
0	105770	53708	22058
0	105776	53708	22048
0	105782	53708	22038
0	105788	53708	22028
0	105794	53708	22018
0	105800	53708	22008
0	105806	53708	21998
0	105812	53708	21988
0	105818	53708	21978
0	105824	53708	21968
0	105830	53708	21958
0	105836	53708	21948
0	105842	53708	21938
0	105848	53708	21928
0	105854	53708	21918
0	105860	53708	21908
0	105866	53708	21898
0	105872	53708	21888
0	105878	53708	21878
0	105884	53708	21868
0	105890	53708	21858
0	105896	53708	21848
0	105902	53708	21838
0	105908	53708	21828
0	105914	53708	21818
0	105920	53708	21808
0	105926	53708	21798
0	105932	53708	21788
0	105938	53708	21778
0	105944	53708	21768
0	105950	53708	21758
0	105956	53708	21748
0	105962	53708	21738
0	105968	53708	21728
0	105974	53708	21718
0	105980	53708	21708
0	105986	53708	21698
0	105992	53708	21688
0	105998	53708	21678
0	106004	53708	21668
0	106010	53708	21658
0	106016	53708	21648
0	106022	53708	21638
0	106028	53708	21628
0	106034	53708	21618
0	106040	53708	21608
0	106046	53708	21598
0	106052	53708	21588
0	106058	53708	21578
0	106064	53708	21568
0	106070	53708	21558
0	106076	53708	21548
0	106082	53708	21538
0	106088	53708	21528
0	106094	53708	21518
0	106100	53708	21508
0	106106	53708	21498
0	106112	53708	21488
0	106118	53708	21478
0	106124	53708	21468
0	106130	53708	21458
0	106136	53708	21448
0	106142	53708	21438
0	106148	53708	21428
0	106154	53708	21418
0	106160	53708	21408
0	106166	53708	21398
0	106172	53708	21388
0	106178	53708	21378
0	106184	53708	21368
0	106190	53708	21358
0	106196	53708	21348
0	106202	53708	21338
0	106208	53708	21328
0	106214	53708	21318
0	106220	53708	21308
0	106226	53708	21298
0	106232	53708	21288
0	106238	53708	21278
0	106244	53708	21268
0	106250	53708	21258
0	106256	53708	21248
0	106262	53708	21238
0	106268	53708	21228
0	106274	53708	21218
0	106280	53708	21208
0	106286	53708	21198
0	106292	53708	21188
0	106298	53708	21178
0	106304	53708	21168
0	106310	53708	21158
0	106316	53708	21148
0	106322	53708	21138
0	106328	53708	21128
0	106334	53708	21118
0	106340	53708	21108
0	106346	53708	21098
0	106352	53708	21088
0	106358	53708	21078
0	106364	53708	21068
0	106370	53708	21058
0	106376	53708	21048
0	106382	53708	21038
0	106388	53708	21028
0	106394	53708	21018
0	106400	53708	21008
0	106406	53708	20998
0	106412	53708	20988
0	106418	53708	20978
0	106424	53708	20968
0	106430	53708	20958
0	106436	53708	20948
0	106442	53708	20938
0	106448	53708	20928
0	106454	53708	20918
0	106460	53708	20908
0	106466	53708	20898
0	106472	53708	20888
0	106478	53708	20878
0	106484	53708	20868
0	106490	53708	20858
0	106496	53708	20848
0	106502	53708	20838
0	106508	53708	20828
0	106514	53708	20818
0	106520	53708	20808
0	106526	53708	20798
0	106532	53708	20788
0	106538	53708	20778
0	106544	53708	20768
0	106550	53708	20758
0	106556	53708	20748
0	106562	53708	20738
0	106568	53708	20728
0	106574	53708	20718
0	106580	53708	20708
0	106586	53708	20698
0	106592	53708	20688
0	106598	53708	20678
0	106604	53708	20668
0	106610	53708	20658
0	106616	53708	20648
0	106622	53708	20638
0	106628	53708	20628
0	106634	53708	20618
0	106640	53708	20608
0	106646	53708	20598
0	106652	53708	20588
0	106658	53708	20578
0	106664	53708	20568
0	106670	53708	20558
0	106676	53708	20548
0	106682	53708	20538
0	106688	53708	20528
0	106694	53708	20518
0	106700	53708	20508
0	106706	53708	20498
0	106712	53708	20488
0	106718	53708	20478
0	106724	53708	20468
0	106730	53708	20458
0	106736	53708	20448
0	106742	53708	20438
0	106748	53708	20428
0	106754	53708	20418
0	106760	53708	20408
0	106766	53708	20398
0	106772	53708	20388
0	106778	53708	20378
0	106784	53708	20368
0	106790	53708	20358
0	106796	53708	20348
0	106802	53708	20338
0	106808	53708	20328
0	106814	53708	20318
0	106820	53708	20308
0	106826	53708	20298
0	106832	53708	20288
0	106838	53708	20278
0	106844	53708	20268
0	106850	53708	20258
0	106856	53708	20248
0	106862	53708	20238
0	106868	53708	20228
0	106874	53708	20218
0	106880	53708	20208
0	106886	53708	20198
0	106892	53708	20188
0	106898	53708	20178
0	106904	53708	20168
0	106910	53708	20158
0	106916	53708	20148
0	106922	53708	20138
0	106928	53708	20128
0	106934	53708	20118
0	106940	53708	20108
0	106946	53708	20098
0	106952	53708	20088
0	106958	53708	20078
0	106964	53708	20068
0	106970	53708	20058
0	106976	53708	20048
0	106982	53708	20038
0	106988	53708	20028
0	106994	53708	20018
0	107000	53708	20008
0	107006	53708	19998
0	107012	53708	19988
0	107018	53708	19978
0	107024	53708	19968
0	107030	53708	19958
0	107036	53708	19948
0	107042	53708	19938
0	107048	53708	19928
0	107054	53708	19918
0	107060	53708	19908
0	107066	53708	19898
0	107072	53708	19888
0	107078	53708	19878
0	107084	53708	19868
0	107090	53708	19858
0	107096	53708	19848
0	107102	53708	19838
0	107108	53708	19828
0	107114	53708	19818
0	107120	53708	19808
0	107126	53708	19798
0	107132	53708	19788
0	107138	53708	19778
0	107144	53708	19768
0	107150	53708	19758
0	107156	53708	19748
0	107162	53708	19738
0	107168	53708	19728
0	107174	53708	19718
0	107180	53708	19708
0	107186	53708	19698
0	107192	53708	19688
0	107198	53708	19678
0	107204	53708	19668
0	107210	53708	19658
0	107216	53708	19648
0	107222	53708	19638
0	107228	53708	19628
0	107234	53708	19618
0	107240	53708	19608
0	107246	53708	19598
0	107252	53708	19588
0	107258	53708	19578
0	107264	53708	19568
0	107270	53708	19558
0	107276	53708	19548
0	107282	53708	19538
0	107288	53708	19528
0	107294	53708	19518
0	107300	53708	19508
0	107306	53708	19498
0	107312	53708	19488
0	107318	53708	19478
0	107324	53708	19468
0	107330	53708	19458
0	107336	53708	19448
0	107342	53708	19438
0	107348	53708	19428
0	107354	53708	19418
0	107360	53708	19408
0	107366	53708	19398
0	107372	53708	19388
0	107378	53708	19378
0	107384	53708	19368
0	107390	53708	19358
0	107396	53708	19348
0	107402	53708	19338
0	107408	53708	19328
0	107414	53708	19318
0	107420	53708	19308
0	107426	53708	19298
0	107432	53708	19288
0	107438	53708	19278
0	107444	53708	19268
0	107450	53708	19258
0	107456	53708	19248
0	107462	53708	19238
0	107468	53708	19228
0	107474	53708	19218
0	107480	53708	19208
0	107486	53708	19198
0	107492	53708	19188
0	107498	53708	19178
0	107504	53708	19168
0	107510	53708	19158
0	107516	53708	19148
0	107522	53708	19138
0	107528	53708	19128
0	107534	53708	19118
0	107540	53708	19108
0	107546	53708	19098
0	107552	53708	19088
0	107558	53708	19078
0	107564	53708	19068
0	107570	53708	19058
0	107576	53708	19048
0	107582	53708	19038
0	107588	53708	19028
0	107594	53708	19018
0	107600	53708	19008
0	107606	53708	18998
0	107612	53708	18988
0	107618	53708	18978
0	107624	53708	18968
0	107630	53708	18958
0	107636	53708	18948
0	107642	53708	18938
0	107648	53708	18928
0	107654	53708	18918
0	107660	53708	18908
0	107666	53708	18898
0	107672	53708	18888
0	107678	53708	18878
0	107684	53708	18868
0	107690	53708	18858
0	107696	53708	18848
0	107702	53708	18838
0	107708	53708	18828
0	107714	53708	18818
0	107720	53708	18808
0	107726	53708	18798
0	107732	53708	18788
0	107738	53708	18778
0	107744	53708	18768
0	107750	53708	18758
0	107756	53708	18748
0	107762	53708	18738
0	107768	53708	18728
0	107774	53708	18718
0	107780	53708	18708
0	107786	53708	18698
0	107792	53708	18688
0	107798	53708	18678
0	107804	53708	18668
0	107810	53708	18658
0	107816	53708	18648
0	107822	53708	18638
0	107828	53708	18628
0	107834	53708	18618
0	107840	53708	18608
0	107846	53708	18598
0	107852	53708	18588
0	107858	53708	18578
0	107864	53708	18568
0	107870	53708	18558
0	107876	53708	18548
0	107882	53708	18538
0	107888	53708	18528
0	107894	53708	18518
0	107900	53708	18508
0	107906	53708	18498
0	107912	53708	18488
0	107918	53708	18478
0	107924	53708	18468
0	107930	53708	18458
0	107936	53708	18448
0	107942	53708	18438
0	107948	53708	18428
0	107954	53708	18418
0	107960	53708	18408
0	107966	53708	18398
0	107972	53708	18388
0	107978	53708	18378
0	107984	53708	18368
0	107990	53708	18358
0	107996	53708	18348
0	108002	53708	18338
0	108008	53708	18328
0	108014	53708	18318
0	108020	53708	18308
0	108026	53708	18298
0	108032	53708	18288
0	108038	53708	18278
0	108044	53708	18268
0	108050	53708	18258
0	108056	53708	18248
0	108062	53708	18238
0	108068	53708	18228
0	108074	53708	18218
0	108080	53708	18208
0	108086	53708	18198
0	108092	53708	18188
0	108098	53708	18178
0	108104	53708	18168
0	108110	53708	18158
0	108116	53708	18148
0	108122	53708	18138
0	108128	53708	18128
0	108134	53708	18118
0	108140	53708	18108
0	108146	53708	18098
0	108152	53708	18088
0	108158	53708	18078
0	108164	53708	18068
0	108170	53708	18058
0	108176	53708	18048
0	108182	53708	18038
0	108188	53708	18028
0	108194	53708	18018
0	108200	53708	18008
0	108206	53708	17998
0	108212	53708	17988
0	108218	53708	17978
0	108224	53708	17968
0	108230	53708	17958
0	108236	53708	17948
0	108242	53708	17938
0	108248	53708	17928
0	108254	53708	17918
0	108260	53708	17908
0	108266	53708	17898
0	108272	53708	17888
0	108278	53708	17878
0	108284	53708	17868
0	108290	53708	17858
0	108296	53708	17848
0	108302	53708	17838
0	108308	53708	17828
0	108314	53708	17818
0	108320	53708	17808
0	108326	53708	17798
0	108332	53708	17788
0	108338	53708	17778
0	108344	53708	17768
0	108350	53708	17758
0	108356	53708	17748
0	108362	53708	17738
0	108368	53708	17728
0	108374	53708	17718
0	108380	53708	17708
0	108386	53708	17698
0	108392	53708	17688
0	108398	53708	17678
0	108404	53708	17668
0	108410	53708	17658
0	108416	53708	17648
0	108422	53708	17638
0	108428	53708	17628
0	108434	53708	17618
0	108440	53708	17608
0	108446	53708	17598
0	108452	53708	17588
0	108458	53708	17578
0	108464	53708	17568
0	108470	53708	17558
0	108476	53708	17548
0	108482	53708	17538
0	108488	53708	17528
0	108494	53708	17518
0	108500	53708	17508
0	108506	53708	17498
0	108512	53708	17488
0	108518	53708	17478
0	108524	53708	17468
0	108530	53708	17458
0	108536	53708	17448
0	108542	53708	17438
0	108548	53708	17428
0	108554	53708	17418
0	108560	53708	17408
0	108566	53708	17398
0	108572	53708	17388
0	108578	53708	17378
0	108584	53708	17368
0	108590	53708	17358
0	108596	53708	17348
0	108602	53708	17338
0	108608	53708	17328
0	108614	53708	17318
0	108620	53708	17308
0	108626	53708	17298
0	108632	53708	17288
0	108638	53708	17278
0	108644	53708	17268
0	108650	53708	17258
0	108656	53708	17248
0	108662	53708	17238
0	108668	53708	17228
0	108674	53708	17218
0	108680	53708	17208
0	108686	53708	17198
0	108692	53708	17188
0	108698	53708	17178
0	108704	53708	17168
0	108710	53708	17158
0	108716	53708	17148
0	108722	53708	17138
0	108728	53708	17128
0	108734	53708	17118
0	108740	53708	17108
0	108746	53708	17098
0	108752	53708	17088
0	108758	53708	17078
0	108764	53708	17068
0	108770	53708	17058
0	108776	53708	17048
0	108782	53708	17038
0	108788	53708	17028
0	108794	53708	17018
0	108800	53708	17008
0	108806	53708	16998
0	108812	53708	16988
0	108818	53708	16978
0	108824	53708	16968
0	108830	53708	16958
0	108836	53708	16948
0	108842	53708	16938
0	108848	53708	16928
0	108854	53708	16918
0	108860	53708	16908
0	108866	53708	16898
0	108872	53708	16888
0	108878	53708	16878
0	108884	53708	16868
0	108890	53708	16858
0	108896	53708	16848
0	108902	53708	16838
0	108908	53708	16828
0	108914	53708	16818
0	108920	53708	16808
0	108926	53708	16798
0	108932	53708	16788
0	108938	53708	16778
0	108944	53708	16768
0	108950	53708	16758
0	108956	53708	16748
0	108962	53708	16738
0	108968	53708	16728
0	108974	53708	16718
0	108980	53708	16708
0	108986	53708	16698
0	108992	53708	16688
0	108998	53708	16678
0	109004	53708	16668
0	109010	53708	16658
0	109016	53708	16648
0	109022	53708	16638
0	109028	53708	16628
0	109034	53708	16618
0	109040	53708	16608
0	109046	53708	16598
0	109052	53708	16588
0	109058	53708	16578
0	109064	53708	16568
0	109070	53708	16558
0	109076	53708	16548
0	109082	53708	16538
0	109088	53708	16528
0	109094	53708	16518
0	109100	53708	16508
0	109106	53708	16498
0	109112	53708	16488
0	109118	53708	16478
0	109124	53708	16468
0	109130	53708	16458
0	109136	53708	16448
0	109142	53708	16438
0	109148	53708	16428
0	109154	53708	16418
0	109160	53708	16408
0	109166	53708	16398
0	109172	53708	16388
0	109178	53708	16378
0	109184	53708	16368
0	109190	53708	16358
0	109196	53708	16348
0	109202	53708	16338
0	109208	53708	16328
0	109214	53708	16318
0	109220	53708	16308
0	109226	53708	16298
0	109232	53708	16288
0	109238	53708	16278
0	109244	53708	16268
0	109250	53708	16258
0	109256	53708	16248
0	109262	53708	16238
0	109268	53708	16228
0	109274	53708	16218
0	109280	53708	16208
0	109286	53708	16198
0	109292	53708	16188
0	109298	53708	16178
0	109304	53708	16168
0	109310	53708	16158
0	109316	53708	16148
0	109322	53708	16138
0	109328	53708	16128
0	109334	53708	16118
0	109340	53708	16108
0	109346	53708	16098
0	109352	53708	16088
0	109358	53708	16078
0	109364	53708	16068
0	109370	53708	16058
0	109376	53708	16048
0	109382	53708	16038
0	109388	53708	16028
0	109394	53708	16018
0	109400	53708	16008
0	109406	53708	15998
0	109412	53708	15988
0	109418	53708	15978
0	109424	53708	15968
0	109430	53708	15958
0	109436	53708	15948
0	109442	53708	15938
0	109448	53708	15928
0	109454	53708	15918
0	109460	53708	15908
0	109466	53708	15898
0	109472	53708	15888
0	109478	53708	15878
0	109484	53708	15868
0	109490	53708	15858
0	109496	53708	15848
0	109502	53708	15838
0	109508	53708	15828
0	109514	53708	15818
0	109520	53708	15808
0	109526	53708	15798
0	109532	53708	15788
0	109538	53708	15778
0	109544	53708	15768
0	109550	53708	15758
0	109556	53708	15748
0	109562	53708	15738
0	109568	53708	15728
[...]
0	172669	72078	5268
0	172675	72078	5258
0	172681	72078	5248
0	172687	72078	5238
0	172693	72078	5228
0	172699	72078	5218
0	172705	72078	5208
0	172711	72078	5198
0	172717	72078	5188
0	172723	72078	5178
0	172729	72078	5168
0	172735	72078	5158
0	172741	72078	5148
0	172747	72078	5138
0	172753	72078	5128
0	172759	72078	5118
0	172765	72078	5108
0	172771	72078	5098
0	172777	72078	5088
0	172783	72078	5078
0	172789	72078	5068
0	172795	72078	5058
0	172801	72078	5048
0	172807	72078	5038
0	172813	72078	5028
0	172819	72078	5018
0	172825	72078	5008
0	172831	72078	4998
0	172837	72078	4988
0	172843	72078	4978
0	172849	72078	4968
0	172855	72078	4958
0	172861	72078	4948
0	172867	72078	4938
0	172873	72078	4928
0	172879	72078	4918
0	172885	72078	4908
0	172891	72078	4898
0	172897	72078	4888
0	172903	72078	4878
0	172909	72078	4868
0	172915	72078	4858
0	172921	72078	4848
0	172927	72078	4838
0	172933	72078	4828
0	172939	72078	4818
0	172945	72078	4808
0	172951	72078	4798
0	172957	72078	4788
0	172963	72078	4778
0	172969	72078	4768
0	172975	72078	4758
0	172981	72078	4748
0	172987	72078	4738
0	172993	72078	4728
0	172999	72078	4718
0	173005	72078	4708
0	173011	72078	4698
0	173017	72078	4688
0	173023	72078	4678
0	173029	72078	4668
0	173035	72078	4658
0	173041	72078	4648
0	173047	72078	4638
0	173053	72078	4628
0	173059	72078	4618
0	173065	72078	4608
0	173071	72078	4598
0	173077	72078	4588
0	173083	72078	4578
0	173089	72078	4568
0	173095	72078	4558
0	173101	72078	4548
0	173107	72078	4538
0	173113	72078	4528
0	173119	72078	4518
0	173125	72078	4508
0	173131	72078	4498
0	173137	72078	4488
0	173143	72078	4478
0	173149	72078	4468
0	173155	72078	4458
0	173161	72078	4448
0	173167	72078	4438
0	173173	72078	4428
0	173179	72078	4418
0	173185	72078	4408
0	173191	72078	4398
0	173197	72078	4388
0	173203	72078	4378
0	173209	72078	4368
0	173215	72078	4358
0	173221	72078	4348
0	173227	72078	4338
0	173233	72078	4328
0	173239	72078	4318
0	173245	72078	4308
0	173251	72078	4298
0	173257	72078	4288
0	173263	72078	4278
0	173269	72078	4268
0	173275	72078	4258
0	173281	72078	4248
0	173287	72078	4238
0	173293	72078	4228
0	173299	72078	4218
0	173305	72078	4208
0	173311	72078	4198
0	173317	72078	4188
0	173323	72078	4178
0	173329	72078	4168
0	173335	72078	4158
0	173341	72078	4148
0	173347	72078	4138
0	174810	72737	1907
0	174823	72737	1897
0	174829	72737	1887
0	174835	72737	1877
0	174841	72737	1867
0	174847	72737	1857
0	174853	72737	1847
0	174859	72737	1837
0	174865	72737	1827
0	174871	72737	1817
0	174877	72737	1807
0	174883	72737	1797
0	174889	72737	1787
0	174895	72737	1777
0	174901	72737	1767
0	174907	72737	1757
0	174913	72737	1747
0	174919	72737	1737
0	174925	72737	1727
0	174931	72737	1717
0	174937	72737	1707
0	174943	72737	1697
0	174949	72737	1687
0	174955	72737	1677
0	174961	72737	1667
0	174967	72737	1657
0	174973	72737	1647
0	174979	72737	1637
0	174985	72737	1627
0	174991	72737	1617
0	174997	72737	1607
0	175003	72737	1597
0	175009	72737	1587
0	175015	72737	1577
0	175021	72737	1567
0	175027	72737	1557
0	175033	72737	1547
0	175039	72737	1537
0	175045	72737	1527
0	175051	72737	1517
0	175057	72737	1507
0	175063	72737	1497
0	175069	72737	1487
0	175075	72737	1477
0	175081	72737	1467
0	175087	72737	1457
0	175093	72737	1447
0	175099	72737	1437
0	175105	72737	1427
0	175111	72737	1417
0	175117	72737	1407
0	175123	72737	1397
0	175129	72737	1387
0	175135	72737	1377
0	175141	72737	1367
0	175147	72737	1357
0	175153	72737	1347
0	175159	72737	1337
0	175165	72737	1327
0	175171	72737	1317
0	175177	72737	1307
0	175183	72737	1297
0	175189	72737	1287
0	175195	72737	1277
0	175201	72737	1267
0	175207	72737	1257
0	175213	72737	1247
0	175219	72737	1237
0	175225	72737	1227
0	175231	72737	1217
0	175237	72737	1207
0	175243	72737	1197
0	175249	72737	1187
0	175255	72737	1177
0	175261	72737	1167
0	175267	72737	1157
0	175273	72737	1147
0	175279	72737	1137
0	175285	72737	1127
0	175291	72737	1117
0	175297	72737	1107
0	175303	72737	1097
0	175309	72737	1087
0	175315	72737	1077
0	175321	72737	1067
0	175327	72737	1057
0	175333	72737	1047
0	175339	72737	1037
0	175345	72737	1027
0	175351	72737	1017
0	175357	72737	1007
0	175363	72737	997
0	175369	72737	987
0	175375	72737	977
0	175381	72737	967
0	175387	72737	957
0	175393	72737	947
0	175399	72737	937
0	175405	72737	927
0	175411	72737	917
0	175417	72737	907
0	175423	72737	897
0	175429	72737	887
0	175435	72737	877
0	175441	72737	867
0	175447	72737	857
0	175453	72737	847
0	175464	72739	839
0	175508	72749	839
0	175551	72759	839
0	175594	72769	839
0	175638	72779	839
0	175680	72789	839
0	175722	72799	839
0	175764	72809	839
0	175806	72819	839
0	175848	72829	839
0	175890	72839	839
0	175932	72849	839
0	175975	72859	839
0	176017	72869	839
0	176059	72879	839
0	176103	72889	839
0	176146	72899	839
0	176189	72909	839
0	176232	72919	839
0	176277	72929	839
0	176320	72939	839
0	176363	72949	839
0	176406	72959	839
0	176449	72969	839
0	176492	72979	839
0	176537	72989	839
0	176581	72999	839
0	176625	73009	839
0	176672	73019	839
0	176719	73029	839
0	176764	73039	839
0	176811	73049	839
0	176856	73059	839
0	176901	73069	839
0	176946	73079	839
0	176991	73089	839
0	177036	73099	839
0	177083	73109	839
0	177129	73119	839
0	177175	73129	839
0	177221	73139	839
0	177267	73149	839
0	177313	73159	839
0	177359	73169	839
0	177405	73179	839
0	177453	73189	839
0	177500	73199	839
0	177547	73209	839
0	177594	73219	839
0	177643	73229	839
0	177691	73239	839
0	177741	73249	839
0	177789	73259	839
0	177837	73269	839
0	177887	73279	839
0	177935	73289	839
0	177983	73299	839
0	178033	73309	839
0	178083	73319	839
0	178132	73329	839
0	178181	73339	839
0	178230	73349	839
0	178279	73359	839
0	178328	73369	839
0	178377	73379	839
0	178428	73389	839
0	178477	73392	832
0	178523	73402	832
0	178569	73412	832
0	178617	73422	832
0	178662	73432	832
0	178709	73442	832
0	178755	73452	832
0	178801	73462	832
0	178847	73472	832
0	178893	73482	832
0	178939	73492	832
0	178987	73502	832
0	179033	73512	832
0	179081	73522	832
0	179127	73532	832
0	179175	73542	832
0	179222	73552	832
0	179270	73562	832
0	179319	73572	832
0	179369	73582	832
0	179417	73592	832
0	179465	73602	832
0	179513	73612	832
0	179563	73622	832
0	179611	73632	832
0	179661	73642	832
0	179709	73652	832
0	179763	73662	832
0	179813	73672	832
0	179863	73682	832
0	179913	73692	832
0	179965	73702	832
0	180015	73712	832
0	180065	73722	832
0	180115	73732	832
0	180165	73742	832
0	180218	73752	832
0	180274	73762	832
0	180328	73772	832
0	180383	73782	832
0	180437	73792	832
0	180491	73802	832
0	180545	73812	832
0	180599	73822	832
0	180653	73832	832
0	180707	73842	832
0	180763	73852	832
0	180818	73862	832
0	180875	73872	832
0	180930	73882	832
0	180985	73892	832
0	181042	73902	832
0	181097	73912	832
0	181152	73922	832
0	181207	73932	832
0	181262	73942	832
0	181320	73952	832
0	181376	73962	832
0	181432	73972	832
0	181488	73982	832
0	181547	73992	832
0	181604	74002	832
0	181661	74012	832
0	181718	74022	832
0	181775	74032	832
0	181836	74042	832
0	181893	74052	832
0	181950	74062	832
0	182007	74072	832
0	182064	74082	832
0	182125	74092	832
0	182182	74102	832
0	182239	74112	832
0	182296	74122	832
0	182353	74132	832
0	182412	74142	832
0	182472	74152	832
0	182530	74162	832
0	182588	74172	832
0	182646	74182	832
0	182704	74192	832
0	182762	74202	832
0	182820	74212	832
0	182881	74222	832
0	182940	74232	832
0	183001	74242	832
0	183060	74252	832
0	183119	74262	832
0	183183	74272	832
0	183243	74282	832
0	183303	74292	832
0	183363	74302	832
0	183423	74312	832
0	183483	74322	832
0	183545	74332	832
0	183606	74342	832
0	183667	74352	832
0	183728	74362	832
0	183789	74372	832
0	183852	74382	832
0	183917	74392	832
0	183980	74402	832
0	184043	74412	832
0	184110	74422	832
0	184175	74432	832
0	184238	74442	832
0	184303	74452	832
0	184367	74462	832
0	184431	74472	832
0	184497	74482	832
0	184563	74492	832
0	184630	74502	832
0	184697	74512	832
0	184762	74522	832
0	184827	74532	832
0	184894	74542	832
0	184958	74552	832
0	185024	74562	832
0	185089	74572	832
0	185154	74582	832
0	185219	74592	832
0	185284	74602	832
0	185349	74612	832
0	185414	74622	832
0	185479	74632	832
0	185544	74642	832
0	185609	74652	832
0	185674	74662	832
0	185742	74672	832
0	185808	74682	832
0	185874	74692	832
0	185940	74702	832
0	186006	74712	832
0	186072	74722	832
0	186141	74732	832
0	186208	74742	832
0	186275	74752	832
0	186342	74762	832
0	186409	74772	832
0	186476	74782	832
0	186543	74792	832
0	186610	74802	832
0	186677	74812	832
0	186744	74822	832
0	186811	74832	832
0	186878	74842	832
0	186945	74852	832
0	187016	74862	832
0	187083	74872	832
0	187153	74882	832
0	187221	74892	832
0	187289	74902	832
0	187359	74912	832
0	187427	74922	832
0	187497	74932	832
0	187566	74942	832
0	187635	74952	832
0	187704	74962	832
0	187776	74972	832
0	187849	74982	832
0	187922	74992	832
0	187993	75002	832
0	188064	75012	832
0	188137	75022	832
0	188208	75032	832
0	188281	75042	832
0	188352	75052	832
0	188423	75062	832
0	188494	75072	832
0	188570	75082	832
0	188643	75092	832
0	188716	75102	832
0	188789	75112	832
0	188864	75122	832
0	188937	75132	832
0	189010	75142	832
0	189083	75152	832
0	189156	75162	832
0	189231	75172	832
0	189309	75182	832
0	189386	75192	832
0	189462	75202	832
0	189538	75212	832
0	189612	75222	832
0	189686	75232	832
0	189762	75242	832
0	189836	75252	832
0	189910	75262	832
0	189986	75272	832
0	190060	75282	832
0	190135	75292	832
0	190208	75302	832
0	190284	75312	832
0	190357	75322	832
0	190432	75332	832
0	190505	75342	832
0	190578	75352	832
0	190651	75362	832
0	190726	75372	832
0	190804	75382	832
0	190884	75392	832
0	190965	75402	832
0	191046	75412	832
0	191126	75422	832
0	191207	75432	832
0	191286	75442	832
0	191367	75452	832
0	191446	75462	832
0	191525	75472	832
0	191605	75482	832
0	191683	75492	832
0	191761	75502	832
0	191839	75512	832
0	191917	75522	832
0	191994	75532	832
0	192071	75542	832
0	192150	75552	832
0	192226	75562	832
0	192302	75572	832
0	192380	75582	832
0	192457	75592	832
0	192534	75602	832
0	192611	75612	832
0	192688	75622	832
0	192767	75632	832
0	192848	75642	832
0	192927	75652	832
0	193006	75662	832
0	193085	75672	832
0	193167	75682	832
0	193250	75692	832
0	193333	75702	832
0	193416	75712	832
0	193498	75722	832
0	193579	75732	832
0	193665	75742	832
0	193745	75752	832
0	193826	75762	832
0	193905	75772	832
0	193989	75782	832
0	194068	75792	832
0	194149	75802	832
0	194229	75812	832
0	194313	75822	832
0	194392	75832	832
0	194471	75842	832
0	194549	75852	832
0	194627	75862	832
0	194705	75872	832
0	194783	75882	832
0	194861	75892	832
0	194940	75902	832
0	195018	75912	832
0	195096	75922	832
0	195173	75932	832
0	195254	75942	832
0	195332	75952	832
0	195410	75962	832
0	195488	75972	832
0	195566	75982	832
0	195644	75992	832
0	195724	76002	832
0	195803	76012	832
0	195884	76022	832
0	195964	76032	832
0	196044	76042	832
0	196127	76052	832
0	196207	76062	832
0	196287	76072	832
0	196367	76082	832
0	196447	76092	832
0	196527	76102	832
0	196607	76112	832
0	196687	76122	832
0	196767	76132	832
0	196847	76142	832
0	196923	76152	832
0	196999	76162	832
0	197074	76172	832
0	197152	76182	832
0	197229	76192	832
0	197305	76202	832
0	197381	76212	832
0	197457	76222	832
0	197533	76232	832
0	197609	76242	832
0	197687	76252	832
0	197765	76262	832
0	197841	76272	832
0	197916	76282	832
0	197991	76292	832
0	198068	76302	832
0	198145	76312	832
0	198220	76322	832
0	198299	76332	832
0	198376	76342	832
0	198454	76352	832
0	198534	76362	832
0	198611	76372	832
0	198687	76382	832
0	198763	76392	832
0	198840	76402	832
0	198916	76412	832
0	198992	76422	832
0	199069	76432	832
0	199146	76442	832
0	199223	76452	832
0	199300	76462	832
0	199377	76472	832
0	199454	76482	832
0	199532	76492	832
0	199608	76502	832
0	199684	76512	832
0	199761	76522	832
0	199836	76532	832
0	199913	76542	832
0	199988	76552	832
0	200064	76562	832
0	200138	76572	832
0	200213	76582	832
0	200289	76592	832
0	200363	76602	832
0	200437	76612	832
0	200512	76622	832
0	200589	76632	832
0	200665	76642	832
0	200740	76652	832
0	200817	76662	832
0	200891	76672	832
0	200965	76682	832
0	201039	76692	832
0	201113	76702	832
0	201187	76712	832
0	201261	76722	832
0	201335	76732	832
0	201413	76742	832
0	201487	76752	832
0	201564	76762	832
0	201638	76772	832
0	201711	76782	832
0	201784	76792	832
0	201859	76802	832
0	201932	76812	832
0	202005	76822	832
0	202079	76832	832
0	202152	76842	832
0	202226	76852	832
0	202301	76862	832
0	202374	76872	832
0	202448	76882	832
0	202524	76892	832
0	202598	76902	832
0	202672	76912	832
0	202747	76922	832
0	202821	76932	832
0	202895	76942	832
0	202970	76952	832
0	203043	76962	832
0	203115	76972	832
0	207005	77812	1662
0	207025	77812	1652
0	207031	77812	1642
0	207037	77812	1632
0	207043	77812	1622
0	207049	77812	1612
0	207055	77812	1602
0	207061	77812	1592
0	207067	77812	1582
0	207073	77812	1572
0	207079	77812	1562
0	207085	77812	1552
0	207091	77812	1542
0	207097	77812	1532
0	207103	77812	1522
0	207109	77812	1512
0	207115	77812	1502
0	207121	77812	1492
0	207127	77812	1482
0	207133	77812	1472
0	207139	77812	1462
0	207145	77812	1452
0	207151	77812	1442
0	207157	77812	1432
0	207163	77812	1422
0	207169	77812	1412
0	207175	77812	1402
0	207181	77812	1392
0	207187	77812	1382
0	207193	77812	1372
0	207199	77812	1362
0	207205	77812	1352
0	207211	77812	1342
0	207217	77812	1332
0	207223	77812	1322
0	207229	77812	1312
0	207235	77812	1302
0	207241	77812	1292
0	207247	77812	1282
0	207253	77812	1272
0	207259	77812	1262
0	207265	77812	1252
0	207271	77812	1242
0	207277	77812	1232
0	207283	77812	1222
0	207289	77812	1212
0	207295	77812	1202
0	207301	77812	1192
0	207307	77812	1182
0	207313	77812	1172
0	207319	77812	1162
0	207325	77812	1152
0	207331	77812	1142
0	207337	77812	1132
0	207343	77812	1122
0	207349	77812	1112
0	207355	77812	1102
0	207361	77812	1092
0	207367	77812	1082
0	207373	77812	1072
0	207379	77812	1062
0	207385	77812	1052
0	207391	77812	1042
0	207397	77812	1032
0	207403	77812	1022
0	207409	77812	1012
0	207415	77812	1002
0	207421	77812	992
0	207427	77812	982
0	207433	77812	972
0	207439	77812	962
0	207445	77812	952
0	207451	77812	942
0	207457	77812	932
0	207463	77812	922
0	207469	77812	912
0	207475	77812	902
0	207481	77812	892
0	207487	77812	882
0	207493	77812	872
0	207499	77812	862
0	207505	77812	852
0	207511	77812	842
0	207517	77812	832
0	207570	77822	832
0	207637	77832	832
0	207704	77842	832
0	207771	77852	832
0	207838	77862	832
0	207905	77872	832
0	207972	77882	832
0	208039	77892	832
0	208107	77902	832
0	208176	77912	832
0	208246	77922	832
0	208316	77932	832
0	208384	77942	832
0	208452	77952	832
0	208520	77962	832
0	208588	77972	832
0	208659	77982	832
0	212466	78822	1662
0	212488	78822	1652
0	212494	78822	1642
0	212500	78822	1632
0	212506	78822	1622
0	212512	78822	1612
0	212518	78822	1602
0	212524	78822	1592
0	212530	78822	1582
0	212536	78822	1572
0	212542	78822	1562
0	212548	78822	1552
0	212554	78822	1542
0	212560	78822	1532
0	212566	78822	1522
0	212572	78822	1512
0	212578	78822	1502
0	212584	78822	1492
0	212590	78822	1482
0	212596	78822	1472
0	212602	78822	1462
0	212608	78822	1452
0	212614	78822	1442
0	212620	78822	1432
0	212626	78822	1422
0	212632	78822	1412
0	212638	78822	1402
0	212644	78822	1392
0	212650	78822	1382
0	212656	78822	1372
0	212662	78822	1362
0	212668	78822	1352
0	212674	78822	1342
0	212680	78822	1332
0	212686	78822	1322
0	212692	78822	1312
0	212698	78822	1302
0	212704	78822	1292
0	212710	78822	1282
0	212716	78822	1272
0	212722	78822	1262
0	212728	78822	1252
0	212734	78822	1242
0	212740	78822	1232
0	212746	78822	1222
0	212752	78822	1212
0	212758	78822	1202
0	212764	78822	1192
0	212770	78822	1182
0	212776	78822	1172
0	212782	78822	1162
0	212788	78822	1152
0	212794	78822	1142
0	212800	78822	1132
0	212806	78822	1122
0	212812	78822	1112
0	212818	78822	1102
0	212824	78822	1092
0	212830	78822	1082
0	212836	78822	1072
0	212842	78822	1062
0	212848	78822	1052
0	212854	78822	1042
0	212860	78822	1032
0	212866	78822	1022
0	212872	78822	1012
0	212878	78822	1002
0	212884	78822	992
0	212890	78822	982
0	212896	78822	972
0	212902	78822	962
0	212908	78822	952
0	212914	78822	942
0	212920	78822	932
0	212926	78822	922
0	212932	78822	912
0	212938	78822	902
0	212944	78822	892
0	212950	78822	882
0	212956	78822	872
0	212962	78822	862
0	212968	78822	852
0	212974	78822	842
0	212980	78822	832
0	213023	78832	832
0	213083	78842	832
0	213141	78852	832
0	213200	78862	832
0	213257	78872	832
0	213314	78882	832
0	213371	78892	832
0	213430	78902	832
0	213490	78912	832
0	213548	78922	832
0	213606	78932	832
0	213664	78942	832
0	213722	78952	832
0	213780	78962	832
0	213839	78972	832
0	213894	78982	832
0	213951	78992	832
0	214007	79002	832
0	214064	79012	832
0	214119	79022	832
0	214174	79032	832
0	214228	79042	832
0	214282	79052	832
0	214336	79062	832
0	214390	79072	832
0	214444	79082	832
0	214498	79092	832
0	214552	79102	832
0	214606	79112	832
0	214660	79122	832
0	214714	79132	832
0	214768	79142	832
0	214822	79152	832
0	214876	79162	832
0	214931	79172	832
0	214985	79182	832
0	215041	79192	832
0	215098	79202	832
0	215152	79212	832
0	215206	79222	832
0	215263	79232	832
0	215318	79242	832
0	215373	79252	832
0	215429	79262	832
0	215483	79272	832
0	215539	79282	832
0	215594	79292	832
0	215649	79302	832
0	215704	79312	832
0	215763	79322	832
0	215820	79332	832
0	215875	79342	832
0	215929	79352	832
0	215983	79362	832
0	216037	79372	832
0	216093	79382	832
0	216148	79392	832
0	216203	79402	832
0	216258	79412	832
0	216313	79422	832
0	216368	79432	832
0	216423	79442	832
0	216478	79452	832
0	216533	79462	832
0	216588	79472	832
0	216643	79482	832
0	216698	79492	832
0	216753	79502	832
0	216810	79512	832
0	216864	79522	832
0	216919	79532	832
0	216973	79542	832
0	217030	79552	832
0	217083	79562	832
0	217136	79572	832
0	217190	79582	832
0	218842	80422	1662
0	218850	80422	1652
0	218856	80422	1642
0	218862	80422	1632
0	218868	80422	1622
0	218874	80422	1612
0	218880	80422	1602
0	218886	80422	1592
0	218892	80422	1582
0	218898	80422	1572
0	218904	80422	1562
0	218910	80422	1552
0	218916	80422	1542
0	218922	80422	1532
0	218928	80422	1522
0	218934	80422	1512
0	218940	80422	1502
0	218946	80422	1492
0	218952	80422	1482
0	218958	80422	1472
0	218964	80422	1462
0	218970	80422	1452
0	218976	80422	1442
0	218982	80422	1432
0	218988	80422	1422
0	218994	80422	1412
0	219000	80422	1402
0	219006	80422	1392
0	219012	80422	1382
0	219018	80422	1372
0	219024	80422	1362
0	219030	80422	1352
0	219036	80422	1342
0	219042	80422	1332
0	219048	80422	1322
0	219054	80422	1312
0	219060	80422	1302
0	219066	80422	1292
0	219072	80422	1282
0	219078	80422	1272
0	219084	80422	1262
0	219090	80422	1252
0	219096	80422	1242
0	219102	80422	1232
0	219108	80422	1222
0	219114	80422	1212
0	219120	80422	1202
0	219126	80422	1192
0	219132	80422	1182
0	219138	80422	1172
0	219144	80422	1162
0	219150	80422	1152
0	219156	80422	1142
0	219162	80422	1132
0	219168	80422	1122
0	219174	80422	1112
0	219180	80422	1102
0	219186	80422	1092
0	219192	80422	1082
0	219198	80422	1072
0	219204	80422	1062
0	219210	80422	1052
0	219216	80422	1042
0	219222	80422	1032
0	219228	80422	1022
0	219234	80422	1012
0	219240	80422	1002
0	219246	80422	992
0	219252	80422	982
0	219258	80422	972
0	219264	80422	962
0	219270	80422	952
0	219276	80422	942
0	219282	80422	932
0	219288	80422	922
0	219294	80422	912
0	219300	80422	902
0	219306	80422	892
0	219312	80422	882
0	219318	80422	872
0	219324	80422	862
0	219330	80422	852
0	219336	80422	842
0	219342	80422	832
0	219359	80432	832
0	219378	80442	832
0	219397	80452	832
0	219416	80462	832
0	219435	80472	832
0	219455	80482	832
0	219474	80492	832
0	219493	80502	832
0	219512	80512	832
0	219531	80522	832
0	219550	80532	832
0	219569	80542	832
0	219588	80552	832
0	219607	80562	832
0	219625	80572	832
0	219644	80582	832
0	219665	80592	832
0	219684	80602	832
0	219702	80612	832
0	219720	80622	832
0	219738	80632	832
0	219756	80642	832
0	219774	80652	832
0	219792	80662	832
0	219809	80672	832
0	219827	80682	832
0	219845	80692	832
0	219862	80702	832
0	219879	80712	832
0	219896	80722	832
0	219915	80732	832
0	219932	80742	832
0	219950	80752	832
0	219968	80762	832
0	219985	80772	832
0	220002	80782	832
0	220019	80792	832
0	220036	80802	832
0	220053	80812	832
0	220070	80822	832

