version 2
run General-0-20250114-18:53:03-92612
attr configname General
attr datetime 20250114-18:53:03
attr experiment General
attr inifile shaw.ini
attr iterationvars ""
attr iterationvarsf ""
attr measurement ""
attr network src.dtnsim
attr processid 92612
attr repetition 0
attr replication #0
attr resultdir results
attr runnumber 0
attr seedset 0
param dtnsim.central.contactsFile "\"contactPlan/Contacts.txt\""
param dtnsim.central.contactsFile_A "\"contactPlan/Contacts_A.txt\""
param dtnsim.central.contactsFile_B "\"contactPlan/Contacts_B.txt\""
param dtnsim.central.contactIdsToDelete_from_celestialA "\"6 16 34 35 37 43 51 55 71 96 127 144 179 241 243 245 247 252 294 321 351 364 365 387\""
param dtnsim.central.contactIdsToDelete_from_celestialB "\"14 42 50 62 63 72 135 138 174 178 182 202 220 221 224 225 226 232 264 289 328 350 358 362 374 386\""
param dtnsim.central.celestialA_nodes "\"1 2 3\""
param dtnsim.central.celestialB_nodes "\"4 5 6\""
param dtnsim.central.locallyfaultsAware true
param dtnsim.central.mode_two_celestial true
param dtnsim.nodesNumber 6
param dtnsim.node[1].icon "\"receiverdish\""
param dtnsim.node[2..5].icon "\"satellite\""
param dtnsim.node[6].icon "\"receiverdish\""
param dtnsim.node[*].dtn.routing "\"cgrModel350\""
param dtnsim.node[*].dtn.routingType "\"routeListType:allPaths-firstEnding,volumeAware:allContacts,extensionBlock:on,contactPlan:global\""
param dtnsim.node[1].app.enable true
param dtnsim.node[*].app.custodyTransfer true
param dtnsim.node[1].app.bundlesNumber "\"1800\""
param dtnsim.node[1].app.start "\"0\""
param dtnsim.node[1].app.destinationEid "\"6\""
param dtnsim.node[1].app.size "\"1500\""
param dtnsim.node[1].app.interval 1

vector 0 dtnsim.node[6].app appBundleReceivedDelayvec:vector ETV
attr interpolationmode none
attr source appBundleReceivedDelay
attr title "appBundleReceivedDelayvec, vector"
0	798	30.4	30.4
0	799	30.4	29.4
0	800	30.4	28.4
0	801	30.4	27.4
0	802	30.4	26.4
0	803	30.4	25.4
0	804	30.4	24.4
0	805	30.4	23.4
0	806	30.4	22.4
0	807	30.4	21.4
0	808	30.4	20.4
0	809	30.4	19.4
0	810	30.4	18.4
0	811	30.4	17.4
0	812	30.4	16.4
0	813	30.4	15.4
0	814	30.4	14.4
0	815	30.4	13.4
0	816	30.4	12.4
0	817	30.4	11.4
0	818	30.4	10.4
0	819	30.4	9.4
0	820	30.4	8.4
0	821	30.4	7.4
0	822	30.4	6.4
0	823	30.4	5.4
0	824	30.4	4.4
0	825	30.4	3.4
0	826	30.4	2.4
0	827	30.4	1.4
0	1011	31.4	1.4
0	1110	32.4	1.4
0	1151	33.4	1.4
0	1192	34.4	1.4
0	1233	35.4	1.4
0	1277	36.4	1.4
0	1319	37.4	1.4
0	1361	38.4	1.4
0	1403	39.4	1.4
0	1445	40.4	1.4
0	1487	41.4	1.4
0	1529	42.4	1.4
0	1571	43.4	1.4
0	1613	44.4	1.4
0	1655	45.4	1.4
0	1697	46.4	1.4
0	1739	47.4	1.4
0	1781	48.4	1.4
0	1823	49.4	1.4
0	1865	50.4	1.4
0	1909	51.4	1.4
0	1952	52.4	1.4
0	1995	53.4	1.4
0	2038	54.4	1.4
0	2081	55.4	1.4
0	2124	56.4	1.4
0	2167	57.4	1.4
0	2210	58.4	1.4
0	2253	59.4	1.4
0	2296	60.4	1.4
0	2339	61.4	1.4
0	2387	62.4	1.4
0	2432	63.4	1.4
0	2477	64.4	1.4
0	2522	65.4	1.4
0	2562	66.4	1.4
0	3525	102.3	36.3
0	3526	102.3	35.3
0	3527	102.3	34.3
0	3528	102.3	33.3
0	3529	102.3	32.3
0	3530	102.3	31.3
0	3531	102.3	30.3
0	3532	102.3	29.3
0	3533	102.3	28.3
0	3534	102.3	27.3
0	3535	102.3	26.3
0	3536	102.3	25.3
0	3537	102.3	24.3
0	3538	102.3	23.3
0	3539	102.3	22.3
0	3540	102.3	21.3
0	3541	102.3	20.3
0	3542	102.3	19.3
0	3543	102.3	18.3
0	3544	102.3	17.3
0	3545	102.3	16.3
0	3546	102.3	15.3
0	3547	102.3	14.3
0	3548	102.3	13.3
0	3549	102.3	12.3
0	3550	102.3	11.3
0	3551	102.3	10.3
0	3552	102.3	9.3
0	3553	102.3	8.3
0	3554	102.3	7.3
0	3555	102.3	6.3
0	3556	102.3	5.3
0	3557	102.3	4.3
0	3558	102.3	3.3
0	3559	102.3	2.3
0	4638	125.4	24.4
0	4639	125.4	23.4
0	4640	125.4	22.4
0	4641	125.4	21.4
0	4642	125.4	20.4
0	4643	125.4	19.4
0	4644	125.4	18.4
0	4645	125.4	17.4
0	4646	125.4	16.4
0	4647	125.4	15.4
0	4648	125.4	14.4
0	4649	125.4	13.4
0	4650	125.4	12.4
0	4651	125.4	11.4
0	4652	125.4	10.4
0	4653	125.4	9.4
0	4654	125.4	8.4
0	4655	125.4	7.4
0	4656	125.4	6.4
0	4657	125.4	5.4
0	4658	125.4	4.4
0	4659	125.4	3.4
0	4660	125.4	2.4
0	4661	125.4	1.4
0	4817	126.4	1.4
0	4906	127.4	1.4
0	4949	128.4	1.4
0	5068	129.5	1.5
0	5154	130.5	1.5
0	5211	131.5	1.5
0	5268	132.5	1.5
0	5325	133.5	1.5
0	5382	134.5	1.5
0	5439	135.5	1.5
0	5496	136.5	1.5
0	5553	137.5	1.5
0	5610	138.5	1.5
0	5667	139.5	1.5
0	5724	140.5	1.5
0	5781	141.5	1.5
0	5838	142.5	1.5
0	5895	143.5	1.5
0	5952	144.5	1.5
0	6009	145.5	1.5
0	6066	146.5	1.5
0	6128	147.5	1.5
0	6187	148.5	1.5
0	6246	149.5	1.5
0	6305	150.5	1.5
0	6366	151.5	1.5
0	6426	152.5	1.5
0	6488	153.5	1.5
0	6548	154.5	1.5
0	6608	155.5	1.5
0	6668	156.5	1.5
0	6727	157.5	1.5
0	6779	158.5	1.5
0	6870	160.5	1.5
0	6929	161.5	1.5
0	7000	162.5	1.5
0	7057	163.5	1.5
0	7117	164.5	1.5
0	7175	165.5	1.5
0	7232	166.5	1.5
0	7288	167.5	1.5
0	7344	168.5	1.5
0	7400	169.5	1.5
0	7456	170.5	1.5
0	7512	171.5	1.5
0	7562	172.5	1.5
0	8142	193.2	20.2
0	8143	193.2	35.2
0	8144	193.2	19.2
0	8145	193.2	18.2
0	8146	193.2	17.2
0	8147	193.2	16.2
0	8148	193.2	15.2
0	8149	193.2	14.2
0	8150	193.2	13.2
0	8151	193.2	12.2
0	8152	193.2	11.2
0	8153	193.2	10.2
0	8154	193.2	9.2
0	8155	193.2	8.2
0	8156	193.2	7.2
0	8157	193.2	6.2
0	8158	193.2	5.2
0	8159	193.2	4.2
0	8160	193.2	3.2
0	8161	193.2	2.2
0	8269	193.3	1.3
0	8305	194.3	1.3
0	8339	195.3	1.3
0	8373	196.3	1.3
0	8407	197.3	1.3
0	8441	198.3	1.3
0	8475	199.3	1.3
0	8509	200.3	1.3
0	8577	201.3	1.3
0	8645	202.3	1.3
0	8678	203.3	1.3
0	8711	204.3	1.3
0	8744	205.3	1.3
0	8777	206.3	1.3
0	8810	207.3	1.3
0	8843	208.3	1.3
0	8876	209.3	1.3
0	10467	239.1	29.1
0	10468	239.1	67.1
0	10469	239.1	28.1
0	10470	239.1	27.1
0	10471	239.1	26.1
0	10472	239.1	25.1
0	10473	239.1	24.1
0	10474	239.1	23.1
0	10475	239.1	22.1
0	10476	239.1	21.1
0	10477	239.1	20.1
0	10478	239.1	19.1
0	10479	239.1	18.1
0	10480	239.1	17.1
0	10481	239.1	16.1
0	10482	239.1	15.1
0	10483	239.1	14.1
0	10484	239.1	13.1
0	10485	239.1	12.1
0	10486	239.1	11.1
0	10487	239.1	10.1
0	10488	239.1	9.1
0	10489	239.1	8.1
0	10490	239.1	7.1
0	10491	239.1	6.1
0	10492	239.1	30.1
0	10493	239.1	5.1
0	10494	239.1	4.1
0	10495	239.1	3.1
0	10496	239.1	2.1
0	10674	239.4	1.4
0	10722	240.4	1.4
0	10768	241.4	1.4
0	10814	242.4	1.4
0	10860	243.4	1.4
0	10906	244.4	1.4
0	10952	245.4	1.4
0	10998	246.4	1.4
0	11044	247.4	1.4
0	11096	248.4	1.4
0	11144	249.4	1.4
0	11192	250.4	1.4
0	11240	251.4	1.4
0	11288	252.4	1.4
0	11330	253.4	1.4
0	11420	255.4	2.4
0	11421	255.4	1.4
0	11470	256.4	1.4
0	11520	257.4	1.4
0	11564	258.4	1.4
0	11607	259.4	1.4
0	11652	260.4	1.4
0	11697	261.4	1.4
0	11742	262.4	1.4
0	11787	263.4	1.4
0	11832	264.4	1.4
0	11877	265.4	1.4
0	11922	266.4	1.4
0	11967	267.4	1.4
0	12016	268.4	1.4
0	12062	269.4	1.4
0	12110	270.4	1.4
0	12156	271.4	1.4
0	12201	272.4	1.4
0	12246	273.4	1.4
0	12289	274.4	1.4
0	12332	275.4	1.4
0	12375	276.4	1.4
0	12418	277.4	1.4
0	12461	278.4	1.4
0	12504	279.4	1.4
0	12545	280.4	1.4
0	12586	281.4	1.4
0	12627	282.4	1.4
0	12670	283.4	1.4
0	12711	284.4	1.4
0	12758	285.4	1.4
0	12800	286.4	1.4
0	12842	287.4	1.4
0	12885	288.4	1.4
0	12927	289.4	1.4
0	13010	291.4	1.4
0	13084	292.4	1.4
0	13108	292.8	3.8
0	13170	293.4	1.4
0	13216	294.4	1.4
0	13260	295.4	1.4
0	13304	296.4	1.4
0	13348	297.4	1.4
0	13396	298.4	1.4
0	13442	299.4	1.4
0	13487	300.4	1.4
0	13537	301.4	1.4
0	13588	302.4	1.4
0	13635	303.4	1.4
0	13682	304.4	1.4
0	13729	305.4	1.4
0	13776	306.4	1.4
0	13823	307.4	1.4
0	13870	308.4	1.4
0	13917	309.4	1.4
0	13967	310.4	1.4
0	14013	311.4	1.4
0	14063	312.4	1.4
0	14111	313.4	1.4
0	14157	314.4	1.4
0	14203	315.4	1.4
0	14249	316.4	1.4
0	14295	317.4	1.4
0	14341	318.4	1.4
0	14387	319.4	1.4
0	14433	320.4	1.4
0	14479	321.4	1.4
0	14547	322.5	1.5
0	14591	323.4	1.4
0	14637	324.4	1.4
0	14684	325.4	1.4
0	14730	326.4	1.4
0	14776	327.4	1.4
0	14822	328.4	1.4
0	14868	329.4	1.4
0	14914	330.4	1.4
0	14960	331.4	1.4
0	15007	332.4	1.4
0	15054	333.4	1.4
0	15100	334.4	1.4
0	15146	335.4	1.4
0	15192	336.4	1.4
0	15238	337.4	1.4
0	15284	338.4	1.4
0	15366	339.4	1.4
0	15415	340.4	1.4
0	15474	341.4	1.4
0	15526	342.4	1.4
0	15578	343.4	1.4
0	15630	344.4	1.4
0	15682	345.4	1.4
0	15735	346.4	1.4
0	15787	347.4	1.4
0	15839	348.4	1.4
0	15889	349.4	1.4
0	15940	350.4	1.4
0	15989	351.4	1.4
0	16038	352.4	1.4
0	16086	353.4	1.4
0	16136	354.4	1.4
0	16185	355.4	1.4
0	16234	356.4	1.4
0	16280	357.4	1.4
0	16326	358.4	1.4
0	16372	359.4	1.4
0	16419	360.4	1.4
0	16463	361.4	1.4
0	16507	362.4	1.4
0	16551	363.4	1.4
0	16589	364.4	1.4
0	16671	366.3	2.3
0	16689	366.4	1.4
0	16733	367.4	1.4
0	16777	368.4	1.4
0	16821	369.4	1.4
0	16866	370.4	1.4
0	16909	371.4	1.4
0	16952	372.4	1.4
0	16995	373.4	1.4
0	17038	374.4	1.4
0	17081	375.4	1.4
0	17124	376.4	1.4
0	17167	377.4	1.4
0	17210	378.4	1.4
0	17258	379.4	1.4
0	17302	380.4	1.4
0	17350	381.4	1.4
0	17395	382.4	1.4
0	17440	383.4	1.4
0	17485	384.4	1.4
0	17530	385.4	1.4
0	17575	386.4	1.4
0	17625	387.4	1.4
0	17671	388.4	1.4
0	17717	389.4	1.4
0	17763	390.4	1.4
0	17809	391.4	1.4
0	17894	393.4	1.4
0	17952	394.4	1.4
0	17975	394.8	3.8
0	18018	395.4	1.4
0	18067	396.4	1.4
0	18113	397.4	1.4
0	18159	398.4	1.4
0	18205	399.4	1.4
0	18251	400.4	1.4
0	18291	401.4	1.4
0	19095	419.2	18.2
0	19096	419.2	17.2
0	19097	419.2	16.2
0	19098	419.2	15.2
0	19099	419.2	14.2
0	19100	419.2	13.2
0	19101	419.2	12.2
0	19102	419.2	11.2
0	19103	419.2	10.2
0	19104	419.2	9.2
0	19105	419.2	8.2
0	19106	419.2	7.2
0	19107	419.2	6.2
0	19108	419.2	5.2
0	19109	419.2	4.2
0	19110	419.2	3.2
0	19111	419.2	2.2
0	19226	419.5	1.5
0	19279	420.5	1.5
0	19330	421.5	1.5
0	19382	422.5	1.5
0	19433	423.5	1.5
0	19484	424.5	1.5
0	19535	425.5	1.5
0	19586	426.5	1.5
0	19637	427.5	1.5
0	19688	428.5	1.5
0	19739	429.5	1.5
0	19790	430.5	1.5
0	19841	431.5	1.5
0	19892	432.5	1.5
0	19943	433.5	1.5
0	19994	434.5	1.5
0	20045	435.5	1.5
0	20096	436.5	1.5
0	20147	437.5	1.5
0	20198	438.5	1.5
0	20249	439.5	1.5
0	20300	440.5	1.5
0	20351	441.5	1.5
0	20403	442.5	1.5
0	20459	443.5	1.5
0	20511	444.5	1.5
0	20563	445.5	1.5
0	20615	446.5	1.5
0	21110	465.1	19.1
0	21111	465.1	18.1
0	21112	465.1	17.1
0	21113	465.1	16.1
0	21114	465.1	15.1
0	21115	465.1	14.1
0	21116	465.1	13.1
0	21117	465.1	12.1
0	21118	465.1	11.1
0	21119	465.1	10.1
0	21120	465.1	9.1
0	21121	465.1	8.1
0	21122	465.1	7.1
0	21123	465.1	6.1
0	21851	473.3	13.3
0	21852	473.3	12.3
0	21853	473.3	11.3
0	21854	473.3	10.3
0	21855	473.3	9.3
0	21856	473.3	8.3
0	21857	473.3	7.3
0	21858	473.3	6.3
0	21859	473.3	5.3
0	21860	473.3	4.3
0	21861	473.3	3.3
0	21862	473.3	2.3
0	21863	473.3	1.3
0	21994	474.3	1.3
0	22041	475.3	1.3
0	22088	476.3	1.3
0	22135	477.3	1.3
0	22182	478.3	1.3
0	22229	479.3	1.3
0	22276	480.3	1.3
0	22323	481.3	1.3
0	22370	482.3	1.3
0	22417	483.3	1.3
0	22464	484.3	1.3
0	22511	485.3	1.3
0	22558	486.3	1.3
0	22610	487.3	1.3
0	22658	488.3	1.3
0	22706	489.3	1.3
0	22754	490.3	1.3
0	22802	491.3	1.3
0	22850	492.3	1.3
0	22898	493.3	1.3
0	22947	494.3	1.3
0	22996	495.3	1.3
0	23049	496.3	1.3
0	23099	497.3	1.3
0	23149	498.3	1.3
0	23199	499.3	1.3
0	23250	500.3	1.3
0	23298	501.3	1.3
0	23347	502.3	1.3
0	23395	503.3	1.3
0	23443	504.3	1.3
0	23491	505.3	1.3
0	23539	506.3	1.3
0	23587	507.3	1.3
0	23635	508.3	1.3
0	23683	509.3	1.3
0	23731	510.3	1.3
0	23779	511.3	1.3
0	23831	512.3	1.3
0	23880	513.3	1.3
0	23929	514.3	1.3
0	23972	515.3	1.3
0	24047	517.4	1.4
0	24093	518.4	1.4
0	24192	519.4	1.4
0	24245	520.4	1.4
0	24614	529.1	9.1
0	24615	529.1	8.1
0	24616	529.1	7.1
0	24617	529.1	6.1
0	24618	529.1	5.1
0	24619	529.1	4.1
0	24620	529.1	3.1
0	24621	529.1	2.1
0	24691	529.4	1.4
0	24741	530.4	1.4
0	24796	531.4	1.4
0	24847	532.4	1.4
0	24892	533.4	1.4
0	24985	535.4	2.4
0	24986	535.4	1.4
0	25038	536.4	1.4
0	25092	537.4	1.4
0	25137	538.4	1.4
0	25969	557.4	19.4
0	25970	557.4	18.4
0	25971	557.4	17.4
0	25972	557.4	16.4
0	25973	557.4	15.4
0	25974	557.4	14.4
0	25975	557.4	13.4
0	25976	557.4	12.4
0	25977	557.4	11.4
0	25978	557.4	10.4
0	25979	557.4	9.4
0	25980	557.4	8.4
0	25981	557.4	7.4
0	25982	557.4	6.4
0	25983	557.4	5.4
0	25984	557.4	4.4
0	25985	557.4	3.4
0	25986	557.4	2.4
0	26100	557.5	1.5
0	26195	558.5	1.5
0	26256	559.5	1.5
0	26313	560.5	1.5
0	26370	561.5	1.5
0	26427	562.5	1.5
0	26484	563.5	1.5
0	26573	564.5	1.5
0	26647	565.5	1.5
0	26681	565.7	50.7
0	26739	566.5	1.5
0	26799	567.5	1.5
0	26857	568.5	1.5
0	26915	569.5	1.5
0	26973	570.5	1.5
0	27031	571.5	1.5
0	27115	572.5	1.5
0	27188	573.5	1.5
0	27249	574.5	1.5
0	27310	575.5	1.5
0	27371	576.5	1.5
0	27432	577.5	1.5
0	27493	578.5	1.5
0	27554	579.5	1.5
0	27615	580.5	1.5
0	27684	581.5	1.5
0	27746	582.5	1.5
0	27808	583.5	1.5
0	27870	584.5	1.5
0	27932	585.5	1.5
0	27994	586.5	1.5
0	28051	587.5	1.5
0	28106	588.5	1.5
0	28162	589.5	1.5
0	28217	590.5	1.5
0	28277	591.5	1.5
0	28334	592.5	1.5
0	28391	593.5	1.5
0	28434	594.4	1.4
0	28476	595.4	1.4
0	28518	596.4	1.4
0	28560	597.4	1.4
0	28602	598.4	1.4
0	28644	599.4	1.4
0	28687	600.4	1.4
0	28728	601.4	1.4
0	28769	602.4	1.4
0	28810	603.4	1.4
0	28851	604.4	1.4
0	28901	605.4	1.4
0	28944	606.4	1.4
0	28987	607.4	1.4
0	29030	608.4	1.4
0	29074	609.4	1.4
0	29116	610.4	1.4
0	29158	611.4	1.4
0	29200	612.4	1.4
0	29242	613.4	1.4
0	29284	614.4	1.4
0	29325	615.4	1.4
0	29370	616.4	1.4
0	29413	617.4	1.4
0	29456	618.4	1.4
0	29499	619.4	1.4
0	29717	620.4	1.4
0	29760	621.4	1.4
0	29846	623.4	2.4
0	29847	623.4	1.4
0	29897	624.4	1.4
0	29949	625.4	1.4
0	29995	626.4	1.4
0	30041	627.4	1.4
0	30087	628.4	1.4
0	30142	629.4	1.4
0	30191	630.4	1.4
0	30236	631.4	1.4
0	30281	632.4	1.4
0	30325	633.4	1.4
0	30370	634.4	1.4
0	30416	635.4	1.4
0	30461	636.4	1.4
0	30506	637.4	1.4
0	30550	638.4	1.4
0	30593	639.4	1.4
0	30636	640.4	1.4
0	30679	641.4	1.4
0	30722	642.4	1.4
0	30765	643.4	1.4
0	30802	644.4	1.4
0	31015	651.3	7.3
0	31016	651.3	6.3
0	31017	651.3	5.3
0	31018	651.3	4.3
0	31019	651.3	3.3
0	31020	651.3	2.3
0	31065	651.4	1.4
0	31118	652.4	1.4
0	31163	653.4	1.4
0	31205	654.4	1.4
0	31249	655.4	1.4
0	31314	656.4	1.4
0	31396	657.4	1.4
0	31442	658.4	1.4
0	31488	659.4	1.4
0	31534	660.4	1.4
0	31580	661.4	1.4
0	31626	662.4	1.4
0	31676	663.4	1.4
0	31726	664.4	1.4
0	31774	665.4	1.4
0	32713	689.1	24.1
0	32714	689.1	23.1
0	32715	689.1	22.1
0	32716	689.1	21.1
0	32717	689.1	20.1
0	32718	689.1	19.1
0	32719	689.1	18.1
0	32720	689.1	17.1
0	32721	689.1	16.1
0	32722	689.1	15.1
0	32723	689.1	14.1
0	32724	689.1	13.1
0	32725	689.1	12.1
0	32726	689.1	11.1
0	32727	689.1	10.1
0	32728	689.1	9.1
0	32729	689.1	8.1
0	32730	689.1	7.1
0	32731	689.1	6.1
0	32732	689.1	5.1
0	32733	689.1	4.1
0	32734	689.1	3.1
0	32735	689.1	2.1
0	32879	689.4	1.4
0	32926	690.4	1.4
0	32973	691.4	1.4
0	33020	692.4	1.4
0	33067	693.4	1.4
0	33113	694.4	1.4
0	33159	695.4	1.4
0	33205	696.4	1.4
0	33251	697.4	1.4
0	33297	698.4	1.4
0	33343	699.4	1.4
0	33389	700.4	1.4
0	33435	701.4	1.4
0	33481	702.4	1.4
0	33527	703.4	1.4
0	33573	704.4	1.4
0	33634	705.4	1.4
0	33693	706.5	1.5
0	33742	707.5	1.5
0	33849	709.5	2.5
0	33850	709.5	1.5
0	33908	710.5	1.5
0	33967	711.5	1.5
0	34022	712.5	1.5
0	34082	713.5	1.5
0	34138	714.5	1.5
0	34194	715.5	1.5
0	34253	716.5	1.5
0	34310	717.5	1.5
0	34367	718.5	1.5
0	34427	719.5	1.5
0	34485	720.5	1.5
0	34542	721.5	1.5
0	34600	722.5	1.5
0	34653	723.5	1.5
0	34765	725.5	2.5
0	34766	725.5	1.5
0	34832	726.5	1.5
0	34895	727.5	1.5
0	34954	728.5	1.5
0	35013	729.5	1.5
0	35072	730.5	1.5
0	35131	731.5	1.5
0	35178	732.5	1.5
0	35220	733.3	1.3
0	35246	734.3	1.3
0	36286	769.4	35.4
0	36287	769.4	34.4
0	36288	769.4	33.4
0	36289	769.4	32.4
0	36290	769.4	31.4
0	36291	769.4	30.4
0	36292	769.4	29.4
0	36293	769.4	28.4
0	36294	769.4	27.4
0	36295	769.4	26.4
0	36296	769.4	25.4
0	36297	769.4	24.4
0	36298	769.4	23.4
0	36299	769.4	22.4
0	36300	769.4	21.4
0	36301	769.4	20.4
0	36302	769.4	19.4
0	36303	769.4	18.4
0	36304	769.4	17.4
0	36305	769.4	16.4
0	36306	769.4	15.4
0	36307	769.4	14.4
0	36308	769.4	13.4
0	36309	769.4	12.4
0	36310	769.4	11.4
0	36311	769.4	10.4
0	36312	769.4	9.4
0	36313	769.4	8.4
0	36314	769.4	7.4
0	36315	769.4	6.4
0	36316	769.4	5.4
0	36317	769.4	4.4
0	36318	769.4	3.4
0	36319	769.4	2.4
0	36320	769.4	1.4
0	36533	770.4	1.4
0	36645	771.4	1.4
0	36689	772.4	1.4
0	36733	773.4	1.4
0	36782	774.4	1.4
0	36834	775.4	1.4
0	36880	776.4	1.4
0	36926	777.4	1.4
0	36972	778.4	1.4
0	37018	779.4	1.4
0	37064	780.4	1.4
0	37110	781.4	1.4
0	37156	782.4	1.4
0	37196	783.4	1.4
0	37315	785.5	2.5
0	37316	785.5	1.5
0	37379	786.5	1.5
0	37447	787.5	1.5
0	37504	788.5	1.5
0	37585	789.5	1.5
0	37643	790.5	1.5
0	37701	791.5	1.5
0	37759	792.5	1.5
0	37817	793.5	1.5
0	37875	794.5	1.5
0	37921	795.5	1.5
0	37967	796.3	1.3
0	38015	797.3	1.3
0	38061	798.3	1.3
0	38107	799.3	1.3
0	38153	800.3	1.3
0	38199	801.3	1.3
0	38245	802.3	1.3
0	38295	803.3	1.3
0	38342	804.3	1.3
0	38390	805.3	1.3
0	38437	806.3	1.3
0	38484	807.3	1.3
0	38533	808.3	1.3
0	38580	809.3	1.3
0	38629	810.3	1.3
0	38677	811.3	1.3
0	38725	812.3	1.3
0	38773	813.3	1.3
0	38823	814.3	1.3
0	38871	815.3	1.3
0	38919	816.3	1.3
0	38967	817.3	1.3
0	39015	818.3	1.3
0	39063	819.3	1.3
0	39115	820.3	1.3
0	39162	821.3	1.3
0	39209	822.3	1.3
0	39255	823.3	1.3
0	39303	824.3	1.3
0	39349	825.3	1.3
0	39397	826.3	1.3
0	39444	827.3	1.3
0	39498	828.3	1.3
0	39611	830.4	2.4
0	39612	830.4	1.4
0	39679	831.4	1.4
0	39736	832.4	1.4
0	39793	833.4	1.4
0	39842	834.4	1.4
0	40785	858.2	24.2
0	40786	858.2	23.2
0	40787	858.2	22.2
0	40788	858.2	21.2
0	40789	858.2	20.2
0	40790	858.2	19.2
0	40791	858.2	18.2
0	40792	858.2	17.2
0	40793	858.2	16.2
0	40794	858.2	15.2
0	40795	858.2	14.2
0	40796	858.2	13.2
0	40797	858.2	12.2
0	40798	858.2	11.2
0	40799	858.2	10.2
0	40800	858.2	9.2
0	40801	858.2	8.2
0	40802	858.2	7.2
0	40803	858.2	6.2
0	40804	858.2	5.2
0	40805	858.2	4.2
0	40806	858.2	3.2
0	40807	858.2	2.2
0	40950	858.5	1.5
0	41004	859.5	1.5
0	41056	860.5	1.5
0	41108	861.5	1.5
0	41160	862.5	1.5
0	41212	863.5	1.5
0	41264	864.5	1.5
0	41316	865.5	1.5
0	41368	866.5	1.5
0	41425	867.5	1.5
0	41548	868.5	1.5
0	41638	869.5	1.5
0	41695	870.5	1.5
0	41751	871.5	1.5
0	41807	872.5	1.5
0	41864	873.5	1.5
0	41919	874.5	1.5
0	41979	875.5	1.5
0	42035	876.5	1.5
0	42091	877.5	1.5
0	42152	878.5	1.5
0	42210	879.5	1.5
0	42268	880.5	1.5
0	42326	881.5	1.5
0	42384	882.5	1.5
0	42441	883.5	1.5
0	42501	884.5	1.5
0	42561	885.5	1.5
0	42620	886.5	1.5
0	42679	887.5	1.5
0	42738	888.5	1.5
0	42797	889.5	1.5
0	42856	890.5	1.5
0	42920	891.5	1.5
0	42981	892.5	1.5
0	43042	893.5	1.5
0	43103	894.5	1.5
0	43163	895.5	1.5
0	43223	896.5	1.5
0	43283	897.5	1.5
0	43343	898.5	1.5
0	43403	899.5	1.5
0	43449	900.4	1.4
0	43497	901.4	1.4
0	43543	902.4	1.4
0	43589	903.4	1.4
0	43635	904.4	1.4
0	43681	905.4	1.4
0	43727	906.4	1.4
0	43773	907.4	1.4
0	43819	908.4	1.4
0	43865	909.4	1.4
0	43911	910.4	1.4
0	43957	911.4	1.4
0	44006	912.4	1.4
0	44054	913.3	1.3
0	44100	914.3	1.3
0	44154	915.3	1.3
0	44208	916.3	1.3
0	44262	917.3	1.3
0	44316	918.3	1.3
0	44370	919.3	1.3
0	44424	920.3	1.3
0	44464	921.3	1.3
0	50278	1100.1	179.1
0	50279	1100.1	178.1
0	50280	1100.1	177.1
0	50281	1100.1	176.1
0	50282	1100.1	175.1
0	50283	1100.1	174.1
0	50284	1100.1	173.1
0	50285	1100.1	172.1
0	50286	1100.1	171.1
0	50287	1100.1	170.1
0	50288	1100.1	169.1
0	50289	1100.1	168.1
0	50290	1100.1	167.1
0	50291	1100.1	166.1
0	50292	1100.1	165.1
0	50293	1100.1	164.1
0	50294	1100.1	163.1
0	50295	1100.1	162.1
0	50296	1100.1	161.1
0	50297	1100.1	160.1
0	50298	1100.1	159.1
0	50299	1100.1	158.1
0	50300	1100.1	157.1
0	50301	1100.1	156.1
0	50302	1100.1	155.1
0	50303	1100.1	154.1
0	50304	1100.1	153.1
0	50305	1100.1	152.1
0	50306	1100.1	151.1
0	50307	1100.1	150.1
0	50308	1100.1	149.1
0	50309	1100.1	148.1
0	50310	1100.1	147.1
0	50311	1100.1	146.1
0	50312	1100.1	145.1
0	50313	1100.1	144.1
0	50314	1100.1	143.1
0	50315	1100.1	142.1
0	50316	1100.1	141.1
0	50317	1100.1	140.1
0	50318	1100.1	139.1
0	50319	1100.1	138.1
0	50320	1100.1	137.1
0	50321	1100.1	136.1
0	50322	1100.1	135.1
0	50323	1100.1	134.1
0	50324	1100.1	133.1
0	50325	1100.1	132.1
0	50326	1100.1	131.1
0	50327	1100.1	130.1
0	50328	1100.1	129.1
0	50329	1100.1	128.1
0	50330	1100.1	127.1
0	50331	1100.1	126.1
0	50332	1100.1	125.1
0	50333	1100.1	124.1
0	50334	1100.1	123.1
0	50335	1100.1	122.1
0	50336	1100.1	121.1
0	50337	1100.1	120.1
0	50338	1100.1	119.1
0	50339	1100.1	118.1
0	50340	1100.1	117.1
0	50341	1100.1	116.1
0	50342	1100.1	115.1
0	50343	1100.1	114.1
0	50344	1100.1	113.1
0	50345	1100.1	112.1
0	50346	1100.1	111.1
0	50347	1100.1	110.1
0	50348	1100.1	109.1
0	50349	1100.1	108.1
0	50350	1100.1	107.1
0	50351	1100.1	106.1
0	50352	1100.1	105.1
0	50353	1100.1	104.1
0	50354	1100.1	103.1
0	50355	1100.1	102.1
0	50356	1100.1	101.1
0	50357	1100.1	100.1
0	50358	1100.1	99.1
0	50359	1100.1	98.1
0	50360	1100.1	97.1
0	50361	1100.1	96.1
0	50362	1100.1	95.1
0	50363	1100.1	94.1
0	50364	1100.1	93.1
0	50365	1100.1	92.1
0	50366	1100.1	91.1
0	50367	1100.1	90.1
0	50368	1100.1	89.1
0	50369	1100.1	88.1
0	50370	1100.1	87.1
0	50371	1100.1	86.1
0	50372	1100.1	85.1
0	50373	1100.1	84.1
0	50374	1100.1	83.1
0	50375	1100.1	82.1
0	50376	1100.1	81.1
0	50377	1100.1	80.1
0	50378	1100.1	79.1
0	50379	1100.1	78.1
0	50380	1100.1	77.1
0	50381	1100.1	76.1
0	50382	1100.1	75.1
0	50383	1100.1	74.1
0	50384	1100.1	73.1
0	50385	1100.1	72.1
0	50386	1100.1	71.1
0	50387	1100.1	70.1
0	50388	1100.1	69.1
0	50389	1100.1	68.1
0	50390	1100.1	67.1
0	50391	1100.1	66.1
0	50392	1100.1	65.1
0	50393	1100.1	64.1
0	50394	1100.1	63.1
0	50395	1100.1	62.1
0	50396	1100.1	61.1
0	50397	1100.1	60.1
0	50398	1100.1	59.1
0	50399	1100.1	58.1
0	50400	1100.1	57.1
0	50401	1100.1	56.1
0	50402	1100.1	55.1
0	50403	1100.1	54.1
0	50404	1100.1	53.1
0	50405	1100.1	52.1
0	50406	1100.1	51.1
0	50407	1100.1	50.1
0	50408	1100.1	49.1
0	50409	1100.1	48.1
0	50410	1100.1	47.1
0	50411	1100.1	46.1
0	50412	1100.1	45.1
0	50413	1100.1	44.1
0	50414	1100.1	43.1
0	50415	1100.1	42.1
0	50416	1100.1	41.1
0	50417	1100.1	40.1
0	50418	1100.1	39.1
0	50419	1100.1	38.1
0	50420	1100.1	37.1
0	50421	1100.1	36.1
0	50422	1100.1	35.1
0	50423	1100.1	34.1
0	50424	1100.1	33.1
0	50425	1100.1	32.1
0	50426	1100.1	31.1
0	50427	1100.1	30.1
0	50428	1100.1	29.1
0	50429	1100.1	28.1
0	50430	1100.1	27.1
0	50431	1100.1	26.1
0	50432	1100.1	25.1
0	50433	1100.1	24.1
0	50434	1100.1	23.1
0	50435	1100.1	22.1
0	50436	1100.1	21.1
0	50437	1100.1	20.1
0	50438	1100.1	19.1
0	50439	1100.1	18.1
0	50440	1100.1	17.1
0	50441	1100.1	16.1
0	50442	1100.1	15.1
0	50443	1100.1	14.1
0	50444	1100.1	13.1
0	50445	1100.1	12.1
0	50446	1100.1	11.1
0	50447	1100.1	10.1
0	50448	1100.1	9.1
0	50449	1100.1	8.1
0	50450	1100.1	7.1
0	50451	1100.1	6.1
0	50452	1100.1	5.1
0	50453	1100.1	4.1
0	50454	1100.1	3.1
0	50455	1100.1	2.1
0	51912	1153.4	54.4
0	51913	1153.4	53.4
0	51914	1153.4	52.4
0	51915	1153.4	51.4
0	51916	1153.4	50.4
0	51917	1153.4	49.4
0	51918	1153.4	48.4
0	51919	1153.4	47.4
0	51920	1153.4	46.4
0	53648	1157.5	49.5
0	53649	1157.5	48.5
0	53650	1157.5	47.5
0	53651	1157.5	46.5
0	53652	1157.5	45.5
0	53653	1157.5	44.5
0	53654	1157.5	43.5
0	53655	1157.5	42.5
0	53656	1157.5	41.5
0	53657	1157.5	40.5
0	53658	1157.5	39.5
0	53659	1157.5	38.5
0	53660	1157.5	37.5
0	53661	1157.5	36.5
0	53662	1157.5	35.5
0	53663	1157.5	34.5
0	53664	1157.5	33.5
0	53665	1157.5	32.5
0	53666	1157.5	31.5
0	53667	1157.5	30.5
0	53668	1157.5	29.5
0	53669	1157.5	28.5
0	53670	1157.5	27.5
0	53671	1157.5	26.5
0	53672	1157.5	25.5
0	53673	1157.5	24.5
0	53674	1157.5	23.5
0	53675	1157.5	22.5
0	53676	1157.5	21.5
0	53677	1157.5	20.5
0	53678	1157.5	19.5
0	53679	1157.5	18.5
0	53680	1157.5	17.5
0	53681	1157.5	16.5
0	53682	1157.5	15.5
0	53683	1157.5	14.5
0	53684	1157.5	13.5
0	53685	1157.5	12.5
0	53686	1157.5	11.5
0	53687	1157.5	10.5
0	53688	1157.5	9.5
0	53689	1157.5	8.5
0	53690	1157.5	7.5
0	53691	1157.5	6.5
0	53692	1157.5	5.5
0	53693	1157.5	4.5
0	53694	1157.5	3.5
0	53695	1157.5	2.5
0	53696	1157.5	1.5
0	54088	1158.5	1.5
0	54144	1159.5	1.5
0	54200	1160.5	1.5
0	54255	1161.5	1.5
0	54310	1162.5	1.5
0	54365	1163.5	1.5
0	54420	1164.5	1.5
0	54475	1165.5	1.5
0	54530	1166.5	1.5
0	54585	1167.5	1.5
0	54640	1168.5	1.5
0	54695	1169.5	1.5
0	54756	1170.5	1.5
0	54813	1171.5	1.5
0	54870	1172.5	1.5
0	54925	1173.5	1.5
0	54980	1174.5	1.5
0	55035	1175.5	1.5
0	55090	1176.5	1.5
0	55145	1177.5	1.5
0	55200	1178.5	1.5
0	55255	1179.5	1.5
0	55310	1180.5	1.5
0	55365	1181.5	1.5
0	55420	1182.5	1.5
0	55475	1183.5	1.5
0	55694	1184.5	1.5
0	55751	1185.5	1.5
0	55805	1186.5	1.5
0	55859	1187.5	1.5
0	55913	1188.5	1.5
0	55967	1189.5	1.5
0	56021	1190.5	1.5
0	56075	1191.5	1.5
0	56129	1192.5	1.5
0	56816	1229.1	37.1
0	56817	1229.1	36.1
0	56818	1229.1	35.1
0	56819	1229.1	34.1
0	56820	1229.1	33.1
0	56821	1229.1	32.1
0	56822	1229.1	31.1
0	56823	1229.1	30.1
0	56824	1229.1	29.1
0	56825	1229.1	28.1
0	56826	1229.1	27.1
0	56827	1229.1	26.1
0	60703	1315.3	111.3
0	60704	1315.3	110.3
0	60705	1315.3	109.3
0	60706	1315.3	108.3
0	60707	1315.3	107.3
0	60708	1315.3	106.3
0	60709	1315.3	105.3
0	60710	1315.3	104.3
0	60711	1315.3	103.3
0	60712	1315.3	102.3
0	60713	1315.3	101.3
0	60714	1315.3	100.3
0	60715	1315.3	99.3
0	60716	1315.3	98.3
0	60717	1315.3	97.3
0	60718	1315.3	96.3
0	60719	1315.3	95.3
0	60720	1315.3	94.3
0	60721	1315.3	93.3
0	60722	1315.3	92.3
0	60723	1315.3	91.3
0	60724	1315.3	90.3
0	60725	1315.3	89.3
0	60726	1315.3	88.3
0	60727	1315.3	87.3
0	60728	1315.3	86.3
0	60729	1315.3	85.3
0	60730	1315.3	84.3
0	60731	1315.3	83.3
0	60732	1315.3	82.3
0	60733	1315.3	81.3
0	60734	1315.3	80.3
0	60735	1315.3	79.3
0	60736	1315.3	78.3
0	60737	1315.3	77.3
0	60738	1315.3	76.3
0	60739	1315.3	75.3
0	60740	1315.3	74.3
0	60741	1315.3	73.3
0	60742	1315.3	72.3
0	60743	1315.3	71.3
0	60744	1315.3	70.3
0	60745	1315.3	69.3
0	60746	1315.3	68.3
0	60747	1315.3	67.3
0	60748	1315.3	66.3
0	60749	1315.3	65.3
0	60750	1315.3	64.3
0	60751	1315.3	63.3
0	60752	1315.3	62.3
0	60753	1315.3	61.3
0	60754	1315.3	60.3
0	60755	1315.3	59.3
0	60756	1315.3	58.3
0	60757	1315.3	57.3
0	60758	1315.3	56.3
0	60759	1315.3	55.3
0	60760	1315.3	54.3
0	60761	1315.3	53.3
0	60762	1315.3	52.3
0	60763	1315.3	51.3
0	60764	1315.3	50.3
0	60765	1315.3	49.3
0	60766	1315.3	48.3
0	60767	1315.3	47.3
0	60768	1315.3	46.3
0	60769	1315.3	45.3
0	60770	1315.3	44.3
0	60771	1315.3	43.3
0	60772	1315.3	42.3
0	60773	1315.3	41.3
0	60774	1315.3	40.3
0	60775	1315.3	39.3
0	60776	1315.3	38.3
0	60777	1315.3	37.3
0	60778	1315.3	36.3
0	60779	1315.3	35.3
0	60780	1315.3	34.3
0	60781	1315.3	33.3
0	60782	1315.3	32.3
0	60783	1315.3	31.3
0	60784	1315.3	30.3
0	60785	1315.3	29.3
0	60786	1315.3	28.3
0	60787	1315.3	27.3
0	60788	1315.3	26.3
0	60789	1315.3	25.3
0	60790	1315.3	24.3
0	60791	1315.3	23.3
0	60792	1315.3	22.3
0	60793	1315.3	21.3
0	60794	1315.3	20.3
0	60795	1315.3	19.3
0	60796	1315.3	18.3
0	60797	1315.3	17.3
0	60798	1315.3	16.3
0	60799	1315.3	15.3
0	60800	1315.3	14.3
0	60801	1315.3	13.3
0	60802	1315.3	12.3
0	60803	1315.3	11.3
0	60804	1315.3	10.3
0	60805	1315.3	9.3
0	60806	1315.3	8.3
0	60807	1315.3	7.3
0	60808	1315.3	6.3
0	60809	1315.3	5.3
0	60810	1315.3	4.3
0	60811	1315.3	3.3
0	60812	1315.3	2.3
0	61377	1315.4	1.4
0	61645	1316.4	1.4
0	61696	1317.4	1.4
0	61744	1318.4	1.4
0	61797	1319.4	1.4
0	61846	1320.4	1.4
0	61895	1321.4	1.4
0	61944	1322.4	1.4
0	61993	1323.4	1.4
0	62033	1324.4	1.4
0	62073	1325.4	1.4
0	62113	1326.4	1.4
0	62153	1327.4	1.4
0	62193	1328.4	1.4
0	62246	1329.4	1.4
0	62285	1330.4	1.4
0	62324	1331.4	1.4
0	62363	1332.4	1.4
0	66174	1424.1	88.1
0	66175	1424.1	87.1
0	66176	1424.1	86.1
0	66177	1424.1	85.1
0	66178	1424.1	84.1
0	66179	1424.1	83.1
0	66180	1424.1	82.1
0	66181	1424.1	81.1
0	66182	1424.1	80.1
0	66183	1424.1	79.1
0	66184	1424.1	78.1
0	66185	1424.1	77.1
0	66186	1424.1	76.1
0	66187	1424.1	75.1
0	66188	1424.1	74.1
0	66189	1424.1	73.1
0	66190	1424.1	72.1
0	66191	1424.1	71.1
0	66192	1424.1	70.1
0	66193	1424.1	69.1
0	66194	1424.1	68.1
0	66195	1424.1	67.1
0	66196	1424.1	66.1
0	66197	1424.1	65.1
0	66198	1424.1	64.1
0	66199	1424.1	63.1
0	66200	1424.1	62.1
0	66201	1424.1	61.1
0	66202	1424.1	60.1
0	66203	1424.1	59.1
0	66204	1424.1	58.1
0	66205	1424.1	57.1
0	66206	1424.1	56.1
0	66207	1424.1	55.1
0	66208	1424.1	54.1
0	66209	1424.1	53.1
0	66210	1424.1	52.1
0	66211	1424.1	51.1
0	66212	1424.1	50.1
0	66213	1424.1	49.1
0	66214	1424.1	92.1
0	66215	1424.1	91.1
0	66216	1424.1	90.1
0	66217	1424.1	89.1
0	66218	1424.1	48.1
0	66219	1424.1	47.1
0	66220	1424.1	46.1
0	66221	1424.1	45.1
0	66222	1424.1	44.1
0	66223	1424.1	43.1
0	66224	1424.1	42.1
0	66225	1424.1	41.1
0	66226	1424.1	40.1
0	66227	1424.1	39.1
0	66228	1424.1	38.1
0	66229	1424.1	37.1
0	66230	1424.1	36.1
0	66231	1424.1	35.1
0	66232	1424.1	34.1
0	66233	1424.1	33.1
0	66234	1424.1	32.1
0	66235	1424.1	31.1
0	66236	1424.1	30.1
0	66237	1424.1	29.1
0	66238	1424.1	28.1
0	66239	1424.1	27.1
0	66240	1424.1	26.1
0	66241	1424.1	25.1
0	66242	1424.1	24.1
0	66243	1424.1	23.1
0	66244	1424.1	22.1
0	66245	1424.1	21.1
0	66246	1424.1	20.1
0	66247	1424.1	19.1
0	66248	1424.1	18.1
0	66249	1424.1	17.1
0	66250	1424.1	16.1
0	66251	1424.1	15.1
0	66252	1424.1	14.1
0	66253	1424.1	13.1
0	66254	1424.1	12.1
0	66255	1424.1	11.1
0	66256	1424.1	10.1
0	66257	1424.1	9.1
0	66258	1424.1	8.1
0	66259	1424.1	7.1
0	66260	1424.1	6.1
0	66261	1424.1	5.1
0	66262	1424.1	4.1
0	66263	1424.1	3.1
0	66264	1424.1	2.1
0	66753	1424.4	1.4
0	66810	1425.4	1.4
0	66867	1426.4	1.4
0	66920	1427.4	1.4
0	66973	1428.4	1.4
0	67027	1429.4	1.4
0	67079	1430.4	1.4
0	67136	1431.4	1.4
0	67189	1432.4	1.4
0	67241	1433.4	1.4
0	67293	1434.4	1.4
0	67345	1435.4	1.4
0	67395	1436.4	1.4
0	67445	1437.4	1.4
0	67495	1438.4	1.4
0	67545	1439.4	1.4
0	67595	1440.4	1.4
0	67650	1441.4	1.4
0	67701	1442.4	1.4
0	67750	1443.4	1.4
0	67799	1444.4	1.4
0	67846	1445.4	1.4
0	67894	1446.4	1.4
0	67940	1447.4	1.4
0	67986	1448.4	1.4
0	68032	1449.4	1.4
0	68078	1450.4	1.4
0	68124	1451.4	1.4
0	68170	1452.4	1.4
0	68216	1453.4	1.4
0	68262	1454.4	1.4
0	68342	1455.4	1.4
0	68432	1457.4	2.4
0	68433	1457.4	1.4
0	68484	1458.4	1.4
0	68534	1459.4	1.4
0	68580	1460.4	1.4
0	68626	1461.4	1.4
0	68666	1462.4	1.4
0	68743	1464.4	2.4
0	68744	1464.4	1.4
0	68788	1465.4	1.4
0	68828	1466.4	1.4
0	68866	1467.4	1.4
0	68904	1468.4	1.4
0	68942	1469.4	1.4
0	68981	1470.4	1.4
0	69018	1471.4	1.4
0	69055	1472.4	1.4
0	69092	1473.4	1.4
0	69128	1474.4	1.4
0	69170	1475.4	1.4
0	69195	1476.4	1.4
0	69717	1488.4	12.4
0	69718	1488.4	11.4
0	69719	1488.4	10.4
0	69720	1488.4	9.4
0	69721	1488.4	8.4
0	69722	1488.4	7.4
0	69723	1488.4	6.4
0	69724	1488.4	5.4
0	69725	1488.4	4.4
0	69726	1488.4	3.4
0	69727	1488.4	2.4
0	69728	1488.4	1.4
0	69825	1489.4	1.4
0	69891	1490.4	1.4
0	69940	1491.4	1.4
0	71961	1543.1	52.1
0	71962	1543.1	51.1
0	71963	1543.1	50.1
0	71964	1543.1	49.1
0	71965	1543.1	48.1
0	71966	1543.1	47.1
0	71967	1543.1	46.1
0	71968	1543.1	45.1
0	71969	1543.1	44.1
0	71970	1543.1	43.1
0	71971	1543.1	42.1
0	71972	1543.1	41.1
0	71973	1543.1	40.1
0	71974	1543.1	39.1
0	71975	1543.1	38.1
0	71976	1543.1	37.1
0	71977	1543.1	36.1
0	71978	1543.1	35.1
0	71979	1543.1	34.1
0	71980	1543.1	33.1
0	71981	1543.1	32.1
0	71982	1543.1	31.1
0	71983	1543.1	30.1
0	71984	1543.1	29.1
0	71985	1543.1	28.1
0	71986	1543.1	27.1
0	71987	1543.1	26.1
0	71988	1543.1	25.1
0	71989	1543.1	24.1
0	71990	1543.1	23.1
0	71991	1543.1	22.1
0	71992	1543.1	21.1
0	71993	1543.1	20.1
0	71994	1543.1	19.1
0	71995	1543.1	18.1
0	71996	1543.1	17.1
0	71997	1543.1	16.1
0	71998	1543.1	15.1
0	71999	1543.1	14.1
0	72000	1543.1	13.1
0	72001	1543.1	12.1
0	72002	1543.1	11.1
0	72003	1543.1	10.1
0	72004	1543.1	9.1
0	72005	1543.1	8.1
0	72006	1543.1	7.1
0	72007	1543.1	6.1
0	72008	1543.1	5.1
0	72009	1543.1	4.1
0	72010	1543.1	3.1
0	72011	1543.1	2.1
0	72292	1543.4	1.4
0	72331	1544.4	1.4
0	73334	1574.2	29.2
0	73335	1574.2	28.2
0	73336	1574.2	27.2
0	73337	1574.2	26.2
0	73338	1574.2	25.2
0	73339	1574.2	24.2
0	73340	1574.2	23.2
0	73341	1574.2	22.2
0	73342	1574.2	21.2
0	73343	1574.2	20.2
0	73344	1574.2	19.2
0	73345	1574.2	18.2
0	73346	1574.2	30.2
0	73347	1574.2	17.2
0	73348	1574.2	16.2
0	73349	1574.2	15.2
0	73350	1574.2	14.2
0	73351	1574.2	13.2
0	73352	1574.2	12.2
0	73353	1574.2	11.2
0	73354	1574.2	10.2
0	73355	1574.2	9.2
0	73356	1574.2	8.2
0	73357	1574.2	7.2
0	73358	1574.2	6.2
0	73359	1574.2	5.2
0	73360	1574.2	4.2
0	73361	1574.2	3.2
0	73362	1574.2	2.2
0	73527	1574.3	1.3
0	73628	1575.3	1.3
0	73669	1576.3	1.3
0	73709	1577.3	1.3
0	73749	1578.3	1.3
0	73789	1579.3	1.3
0	73829	1580.3	1.3
0	73869	1581.3	1.3
0	73913	1582.3	1.3
0	73954	1583.3	1.3
0	73995	1584.3	1.3
0	74036	1585.3	1.3
0	74077	1586.3	1.3
0	74142	1587.3	1.3
0	74195	1588.3	1.3
0	75987	1639.3	51.3
0	75988	1639.3	50.3
0	75989	1639.3	49.3
0	75990	1639.3	48.3
0	75991	1639.3	47.3
0	75992	1639.3	46.3
0	75993	1639.3	45.3
0	75994	1639.3	44.3
0	75995	1639.3	43.3
0	75996	1639.3	42.3
0	75997	1639.3	41.3
0	75998	1639.3	40.3
0	75999	1639.3	39.3
0	76000	1639.3	38.3
0	76001	1639.3	37.3
0	76002	1639.3	36.3
0	76003	1639.3	35.3
0	76004	1639.3	34.3
0	76005	1639.3	33.3
0	76006	1639.3	32.3
0	76007	1639.3	31.3
0	76008	1639.3	30.3
0	76009	1639.3	29.3
0	76010	1639.3	28.3
0	76011	1639.3	27.3
0	76012	1639.3	26.3
0	76013	1639.3	25.3
0	76014	1639.3	24.3
0	76015	1639.3	23.3
0	76016	1639.3	22.3
0	76017	1639.3	21.3
0	76018	1639.3	20.3
0	76019	1639.3	19.3
0	76020	1639.3	18.3
0	76021	1639.3	17.3
0	76022	1639.3	16.3
0	76023	1639.3	15.3
0	76024	1639.3	14.3
0	76025	1639.3	13.3
0	76026	1639.3	12.3
0	76027	1639.3	11.3
0	76028	1639.3	10.3
0	76029	1639.3	9.3
0	79120	1703.5	72.5
0	79121	1703.5	71.5
0	79122	1703.5	70.5
0	79123	1703.5	69.5
0	79124	1703.5	68.5
0	79125	1703.5	67.5
0	79126	1703.5	66.5
0	79127	1703.5	65.5
0	79128	1703.5	64.5
0	79129	1703.5	63.5
0	79130	1703.5	62.5
0	79131	1703.5	61.5
0	79132	1703.5	60.5
0	79133	1703.5	59.5
0	79134	1703.5	58.5
0	79135	1703.5	57.5
0	79136	1703.5	56.5
0	79137	1703.5	55.5
0	79138	1703.5	54.5
0	79139	1703.5	53.5
0	79140	1703.5	52.5
0	79141	1703.5	51.5
0	79142	1703.5	50.5
0	79143	1703.5	49.5
0	79144	1703.5	48.5
0	79145	1703.5	47.5
0	79146	1703.5	46.5
0	79147	1703.5	45.5
0	79148	1703.5	44.5
0	79149	1703.5	43.5
0	79150	1703.5	42.5
0	79151	1703.5	41.5
0	79152	1703.5	40.5
0	79153	1703.5	39.5
0	79154	1703.5	38.5
0	79155	1703.5	37.5
0	79156	1703.5	36.5
0	79157	1703.5	35.5
0	79158	1703.5	34.5
0	79159	1703.5	33.5
0	79160	1703.5	32.5
0	79161	1703.5	31.5
0	79162	1703.5	30.5
0	79163	1703.5	29.5
0	79164	1703.5	28.5
0	79165	1703.5	27.5
0	79166	1703.5	26.5
0	79167	1703.5	25.5
0	79168	1703.5	24.5
0	79169	1703.5	23.5
0	79170	1703.5	22.5
0	79171	1703.5	21.5
0	79172	1703.5	20.5
0	79173	1703.5	19.5
0	79174	1703.5	18.5
0	79175	1703.5	17.5
0	79176	1703.5	16.5
0	79177	1703.5	15.5
0	79178	1703.5	14.5
0	79179	1703.5	13.5
0	79180	1703.5	12.5
0	79181	1703.5	11.5
0	79182	1703.5	10.5
0	79183	1703.5	9.5
0	79184	1703.5	8.5
0	79185	1703.5	7.5
0	79186	1703.5	6.5
0	79187	1703.5	5.5
0	79188	1703.5	4.5
0	79189	1703.5	3.5
0	79190	1703.5	2.5
0	79191	1703.5	1.5
0	79600	1704.5	1.5
0	79798	1705.5	1.5
0	79854	1706.5	1.5
0	79910	1707.5	1.5
0	79966	1708.5	1.5
0	80022	1709.5	1.5
0	80078	1710.5	1.5
0	80134	1711.5	1.5
0	80190	1712.5	1.5
0	80246	1713.5	1.5
0	80302	1714.5	1.5
0	80358	1715.5	1.5
0	80414	1716.5	1.5
0	80470	1717.5	1.5
0	80531	1718.5	1.5
0	80588	1719.5	1.5
0	80639	1720.5	1.5
0	80715	1722.4	1.4
0	80757	1723.4	1.4
0	80812	1724.4	1.4
0	80857	1725.4	1.4
0	80900	1726.4	1.4
0	80943	1727.4	1.4
0	80986	1728.4	1.4
0	81029	1729.4	1.4
0	81072	1730.4	1.4
0	81114	1731.4	1.4
0	81156	1732.4	1.4
0	81197	1733.4	1.4
0	81238	1734.4	1.4
0	81279	1735.4	1.4
0	81320	1736.4	1.4
0	81361	1737.4	1.4
0	81488	1738.4	1.4
0	81572	1739.4	1.4
0	81613	1740.4	1.4
0	81654	1741.4	1.4
0	81697	1742.4	1.4
0	81738	1743.4	1.4
0	81779	1744.4	1.4
0	81820	1745.4	1.4
0	81869	1746.4	1.4
0	81913	1747.4	1.4
0	81957	1748.4	1.4
0	82002	1749.4	1.4
0	82044	1750.4	1.4
0	82094	1751.4	1.4
0	82162	1752.4	1.4
0	82223	1753.4	33.4
0	82224	1753.4	1.4
0	82285	1754.4	1.4
0	82338	1755.4	1.4
0	82389	1756.4	1.4
0	82440	1757.4	1.4
0	82491	1758.4	1.4
0	82543	1759.4	1.4
0	82592	1760.4	1.4
0	82641	1761.4	1.4
0	82695	1762.4	1.4
0	82746	1763.4	1.4
0	82797	1764.4	1.4
0	82848	1765.4	1.4
0	82899	1766.4	1.4
0	82950	1767.4	1.4
0	83001	1768.4	1.4
0	83052	1769.4	1.4
0	83103	1770.4	1.4
0	83137	1771.4	1.4


