version 2
run General-0-20250114-19:20:48-94540
attr configname General
attr datetime 20250114-19:20:48
attr experiment General
attr inifile shaw.ini
attr iterationvars ""
attr iterationvarsf ""
attr measurement ""
attr network src.dtnsim
attr processid 94540
attr repetition 0
attr replication #0
attr resultdir results
attr runnumber 0
attr seedset 0
param dtnsim.central.contactsFile "\"contactPlan/Contacts.txt\""
param dtnsim.central.contactsFile_A "\"contactPlan/Contacts_A.txt\""
param dtnsim.central.contactsFile_B "\"contactPlan/Contacts_B.txt\""
param dtnsim.central.contactIdsToDelete_from_celestialA "\"1 5 15 47 57 77 85 91 99 143 147 177 179 193 203 214 223 233 241 242 245 246 273 276 277 292 295 301 302 317 341 353 388 413 450 459 465 467 475 501 523 528 537 542 548 559 581 595 597 601 609 616 617 627 631 647 655 694 721 738 745 771 773 777\""
param dtnsim.central.contactIdsToDelete_from_celestialB "\"6 9 10 13 20 21 23 31 50 52 62 90 93 94 104 116 125 130 132 142 150 152 170 174 178 180 181 201 204 266 283 296 298 300 306 316 321 331 340 342 350 376 380 384 394 406 414 416 422 430 443 446 454 456 461 494 504 506 530 540 544 551 570 574 580 582 589 614 622 624 666 680 681 687 696 697 699 702 711 722 759 764 775 779 788 791\""
param dtnsim.central.celestialA_nodes "\"1 2 3\""
param dtnsim.central.celestialB_nodes "\"4 5 6\""
param dtnsim.central.locallyfaultsAware true
param dtnsim.central.mode_two_celestial true
param dtnsim.nodesNumber 6
param dtnsim.node[1].icon "\"receiverdish\""
param dtnsim.node[2..5].icon "\"satellite\""
param dtnsim.node[6].icon "\"receiverdish\""
param dtnsim.node[*].dtn.routing "\"cgrModel350\""
param dtnsim.node[*].dtn.routingType "\"routeListType:allPaths-firstEnding,volumeAware:allContacts,extensionBlock:on,contactPlan:global\""
param dtnsim.node[1].app.enable true
param dtnsim.node[*].app.custodyTransfer true
param dtnsim.node[1].app.bundlesNumber "\"3600\""
param dtnsim.node[1].app.start "\"0\""
param dtnsim.node[1].app.destinationEid "\"6\""
param dtnsim.node[1].app.size "\"1500\""
param dtnsim.node[1].app.interval 1

vector 0 dtnsim.node[6].app appBundleReceivedDelayvec:vector ETV
attr interpolationmode none
attr source appBundleReceivedDelay
attr title "appBundleReceivedDelayvec, vector"
0	5293	154.3	154.3
0	5294	154.3	153.3
0	5295	154.3	152.3
0	5296	154.3	151.3
0	5297	154.3	150.3
0	5298	154.3	149.3
0	5299	154.3	148.3
0	5300	154.3	147.3
0	5301	154.3	146.3
0	5302	154.3	145.3
0	5303	154.3	144.3
0	5304	154.3	143.3
0	5305	154.3	142.3
0	5306	154.3	141.3
0	5307	154.3	140.3
0	5308	154.3	139.3
0	5309	154.3	138.3
0	5310	154.3	137.3
0	5311	154.3	136.3
0	5312	154.3	135.3
0	5313	154.3	134.3
0	5314	154.3	133.3
0	5315	154.3	132.3
0	5316	154.3	131.3
0	5317	154.3	130.3
0	5318	154.3	129.3
0	5319	154.3	128.3
0	5320	154.3	127.3
0	5321	154.3	126.3
0	5322	154.3	125.3
0	5323	154.3	124.3
0	5324	154.3	123.3
0	5325	154.3	122.3
0	5326	154.3	121.3
0	5327	154.3	120.3
0	5328	154.3	119.3
0	5329	154.3	118.3
0	5330	154.3	117.3
0	5331	154.3	116.3
0	5332	154.3	115.3
0	5333	154.3	114.3
0	5334	154.3	113.3
0	5335	154.3	112.3
0	5336	154.3	111.3
0	5337	154.3	110.3
0	5338	154.3	109.3
0	5339	154.3	108.3
0	5340	154.3	107.3
0	5341	154.3	106.3
0	5342	154.3	105.3
0	5343	154.3	104.3
0	5344	154.3	103.3
0	5345	154.3	102.3
0	5346	154.3	101.3
0	5347	154.3	100.3
0	5348	154.3	99.3
0	5349	154.3	98.3
0	5350	154.3	97.3
0	5351	154.3	96.3
0	5352	154.3	95.3
0	5353	154.3	94.3
0	5354	154.3	93.3
0	5355	154.3	92.3
0	5356	154.3	91.3
0	5357	154.3	90.3
0	5358	154.3	89.3
0	5359	154.3	88.3
0	5360	154.3	87.3
0	5361	154.3	86.3
0	5362	154.3	85.3
0	5363	154.3	84.3
0	5364	154.3	83.3
0	5365	154.3	82.3
0	5366	154.3	81.3
0	5367	154.3	80.3
0	5368	154.3	79.3
0	5369	154.3	78.3
0	5370	154.3	77.3
0	5371	154.3	76.3
0	5372	154.3	75.3
0	5373	154.3	74.3
0	5374	154.3	73.3
0	5375	154.3	72.3
0	5376	154.3	71.3
0	5377	154.3	70.3
0	5378	154.3	69.3
0	5379	154.3	68.3
0	5380	154.3	67.3
0	5381	154.3	66.3
0	5382	154.3	65.3
0	5383	154.3	64.3
0	5384	154.3	63.3
0	5385	154.3	62.3
0	5386	154.3	61.3
0	5387	154.3	60.3
0	5388	154.3	59.3
0	5389	154.3	58.3
0	5390	154.3	57.3
0	5391	154.3	56.3
0	5392	154.3	55.3
0	5393	154.3	54.3
0	5394	154.3	53.3
0	5395	154.3	52.3
0	5396	154.3	51.3
0	5397	154.3	50.3
0	5398	154.3	49.3
0	5399	154.3	48.3
0	5400	154.3	47.3
0	5401	154.3	46.3
0	5402	154.3	45.3
0	5403	154.3	44.3
0	11456	240.4	129.4
0	11457	240.4	128.4
0	11458	240.4	127.4
0	11459	240.4	126.4
0	11460	240.4	125.4
0	11461	240.4	124.4
0	11462	240.4	123.4
0	11463	240.4	122.4
0	11464	240.4	121.4
0	11465	240.4	120.4
0	11466	240.4	119.4
0	11467	240.4	118.4
0	11468	240.4	117.4
0	11469	240.4	116.4
0	11470	240.4	115.4
0	11471	240.4	114.4
0	11472	240.4	113.4
0	11473	240.4	112.4
0	11474	240.4	111.4
0	11475	240.4	110.4
0	11476	240.4	109.4
0	11477	240.4	108.4
0	11478	240.4	107.4
0	11479	240.4	106.4
0	11480	240.4	105.4
0	11481	240.4	104.4
0	11482	240.4	103.4
0	11483	240.4	102.4
0	11484	240.4	101.4
0	11485	240.4	100.4
0	11486	240.4	99.4
0	11487	240.4	98.4
0	11488	240.4	97.4
0	11489	240.4	96.4
0	11490	240.4	95.4
0	11491	240.4	94.4
0	11492	240.4	93.4
0	11493	240.4	92.4
0	11494	240.4	91.4
0	11495	240.4	90.4
0	11496	240.4	89.4
0	11497	240.4	88.4
0	11498	240.4	87.4
0	11499	240.4	86.4
0	11500	240.4	85.4
0	11501	240.4	84.4
0	11502	240.4	83.4
0	11503	240.4	82.4
0	11504	240.4	81.4
0	11505	240.4	80.4
0	11506	240.4	79.4
0	11507	240.4	78.4
0	11508	240.4	77.4
0	11509	240.4	76.4
0	11510	240.4	75.4
0	11511	240.4	74.4
0	11512	240.4	73.4
0	11513	240.4	72.4
0	11514	240.4	71.4
0	11515	240.4	70.4
0	11516	240.4	69.4
0	11517	240.4	68.4
0	11518	240.4	67.4
0	11519	240.4	66.4
0	11520	240.4	65.4
0	11521	240.4	64.4
0	11522	240.4	63.4
0	11523	240.4	62.4
0	11524	240.4	61.4
0	11525	240.4	60.4
0	11526	240.4	59.4
0	11527	240.4	58.4
0	11528	240.4	57.4
0	11529	240.4	56.4
0	11530	240.4	55.4
0	11531	240.4	54.4
0	11532	240.4	53.4
0	11533	240.4	52.4
0	11534	240.4	51.4
0	11535	240.4	50.4
0	11536	240.4	49.4
0	11537	240.4	48.4
0	11538	240.4	47.4
0	11539	240.4	46.4
0	11540	240.4	45.4
0	11541	240.4	44.4
0	11542	240.4	43.4
0	11543	240.4	42.4
0	11544	240.4	41.4
0	11545	240.4	40.4
0	11546	240.4	39.4
0	11547	240.4	38.4
0	11548	240.4	37.4
0	11549	240.4	36.4
0	11550	240.4	35.4
0	11551	240.4	34.4
0	11552	240.4	33.4
0	11553	240.4	32.4
0	11554	240.4	31.4
0	11555	240.4	30.4
0	11556	240.4	29.4
0	11557	240.4	28.4
0	11558	240.4	27.4
0	11559	240.4	26.4
0	11560	240.4	25.4
0	11561	240.4	24.4
0	11562	240.4	23.4
0	11563	240.4	22.4
0	11564	240.4	21.4
0	11565	240.4	20.4
0	11566	240.4	19.4
0	11567	240.4	18.4
0	11568	240.4	17.4
0	11569	240.4	16.4
0	11570	240.4	15.4
0	11571	240.4	14.4
0	11572	240.4	13.4
0	11573	240.4	12.4
0	11574	240.4	11.4
0	11575	240.4	10.4
0	11576	240.4	9.4
0	11577	240.4	8.4
0	11578	240.4	7.4
0	11579	240.4	6.4
0	11580	240.4	5.4
0	11581	240.4	4.4
0	11582	240.4	3.4
0	11583	240.4	2.4
0	11584	240.4	1.4
0	12533	241.4	1.4
0	12586	242.4	1.4
0	12639	243.4	1.4
0	12692	244.4	1.4
0	12751	245.4	1.4
0	12806	246.4	1.4
0	12861	247.4	1.4
0	12916	248.4	1.4
0	12971	249.4	1.4
0	13023	250.4	1.4
0	13233	252.4	2.4
0	13234	252.4	1.4
0	13408	253.4	1.4
0	13573	254.4	1.4
0	13627	255.4	1.4
0	14100	270.1	15.1
0	14101	270.1	14.1
0	14102	270.1	13.1
0	14103	270.1	12.1
0	14104	270.1	11.1
0	14105	270.1	10.1
0	14106	270.1	9.1
0	14107	270.1	8.1
0	14108	270.1	7.1
0	14109	270.1	6.1
0	14110	270.1	5.1
0	14111	270.1	4.1
0	14112	270.1	3.1
0	14113	270.1	2.1
0	14139	270.3	1.3
0	14173	271.3	1.3
0	14207	272.3	1.3
0	14241	273.3	1.3
0	14275	274.3	1.3
0	14309	275.3	1.3
0	14343	276.3	1.3
0	14379	277.3	1.3
0	14413	278.3	1.3
0	14447	279.3	1.3
0	14481	280.3	1.3
0	14515	281.3	1.3
0	14550	282.3	1.3
0	14583	283.3	1.3
0	14616	284.3	1.3
0	14649	285.3	1.3
0	14682	286.3	1.3
0	14715	287.3	1.3
0	14748	288.3	1.3
0	14781	289.3	1.3
0	14814	290.3	1.3
0	14847	291.3	1.3
0	14880	292.3	1.3
0	14913	293.3	1.3
0	14946	294.3	1.3
0	14979	295.3	1.3
0	15012	296.3	1.3
0	15031	297.3	1.3
0	16267	386.1	131.1
0	16268	386.1	130.1
0	16269	386.1	129.1
0	16270	386.1	128.1
0	16271	386.1	127.1
0	16272	386.1	126.1
0	16273	386.1	125.1
0	16274	386.1	124.1
0	16275	386.1	123.1
0	16276	386.1	122.1
0	16277	386.1	121.1
0	16278	386.1	120.1
0	16279	386.1	119.1
0	16280	386.1	118.1
0	16281	386.1	117.1
0	16282	386.1	116.1
0	16283	386.1	115.1
0	16284	386.1	114.1
0	16285	386.1	113.1
0	16286	386.1	112.1
0	16287	386.1	111.1
0	16288	386.1	110.1
0	16289	386.1	109.1
0	16290	386.1	108.1
0	16291	386.1	107.1
0	16292	386.1	106.1
0	16293	386.1	105.1
0	16294	386.1	104.1
0	16295	386.1	103.1
0	16296	386.1	102.1
0	23506	556.1	259.1
0	23507	556.1	258.1
0	23508	556.1	257.1
0	23509	556.1	256.1
0	23510	556.1	255.1
0	23511	556.1	254.1
0	23512	556.1	253.1
0	23513	556.1	252.1
0	23514	556.1	251.1
0	23515	556.1	250.1
0	23516	556.1	249.1
0	23517	556.1	248.1
0	23518	556.1	247.1
0	23519	556.1	246.1
0	23520	556.1	245.1
0	23521	556.1	244.1
0	23522	556.1	243.1
0	23523	556.1	242.1
0	23524	556.1	241.1
0	23525	556.1	240.1
0	23526	556.1	239.1
0	23527	556.1	238.1
0	23528	556.1	237.1
0	23529	556.1	236.1
0	23530	556.1	235.1
0	23531	556.1	234.1
0	23532	556.1	233.1
0	23533	556.1	232.1
0	23534	556.1	231.1
0	23535	556.1	230.1
0	23536	556.1	229.1
0	23537	556.1	228.1
0	23538	556.1	227.1
0	23539	556.1	226.1
0	23540	556.1	225.1
0	23541	556.1	224.1
0	23542	556.1	223.1
0	23543	556.1	222.1
0	23544	556.1	221.1
0	23545	556.1	220.1
0	23546	556.1	219.1
0	23547	556.1	218.1
0	23548	556.1	217.1
0	23549	556.1	216.1
0	23550	556.1	215.1
0	23551	556.1	214.1
0	23552	556.1	213.1
0	23553	556.1	212.1
0	23554	556.1	211.1
0	23555	556.1	210.1
0	23556	556.1	209.1
0	23557	556.1	208.1
0	23558	556.1	207.1
0	23559	556.1	206.1
0	23560	556.1	205.1
0	23561	556.1	204.1
0	23562	556.1	203.1
0	23563	556.1	202.1
0	23564	556.1	201.1
0	23565	556.1	200.1
0	23566	556.1	199.1
0	23567	556.1	198.1
0	23568	556.1	197.1
0	23569	556.1	196.1
0	23570	556.1	195.1
0	23571	556.1	194.1
0	23572	556.1	193.1
0	23573	556.1	192.1
0	23574	556.1	191.1
0	23575	556.1	190.1
0	23576	556.1	189.1
0	23577	556.1	188.1
0	23578	556.1	187.1
0	23579	556.1	186.1
0	23580	556.1	185.1
0	23581	556.1	184.1
0	23582	556.1	183.1
0	23583	556.1	182.1
0	23584	556.1	181.1
0	23585	556.1	180.1
0	23586	556.1	179.1
0	23587	556.1	178.1
0	23588	556.1	177.1
0	23589	556.1	176.1
0	23590	556.1	175.1
0	23591	556.1	174.1
0	23592	556.1	173.1
0	23593	556.1	172.1
0	23594	556.1	171.1
0	23595	556.1	170.1
0	23596	556.1	169.1
0	23597	556.1	168.1
0	23598	556.1	167.1
0	23599	556.1	166.1
0	23600	556.1	165.1
0	23601	556.1	164.1
0	23602	556.1	163.1
0	23603	556.1	162.1
0	23604	556.1	161.1
0	23605	556.1	160.1
0	23606	556.1	159.1
0	23607	556.1	158.1
0	23608	556.1	157.1
0	23609	556.1	156.1
0	23610	556.1	155.1
0	23611	556.1	154.1
0	23612	556.1	153.1
0	23613	556.1	152.1
0	23614	556.1	151.1
0	23615	556.1	150.1
0	23616	556.1	149.1
0	23617	556.1	148.1
0	23618	556.1	147.1
0	23619	556.1	146.1
0	23620	556.1	145.1
0	23621	556.1	144.1
0	23622	556.1	143.1
0	23623	556.1	142.1
0	23624	556.1	141.1
0	23625	556.1	140.1
0	23626	556.1	139.1
0	23627	556.1	138.1
0	23628	556.1	137.1
0	23629	556.1	136.1
0	23630	556.1	135.1
0	23631	556.1	134.1
0	23632	556.1	133.1
0	23633	556.1	132.1
0	23634	556.1	131.1
0	23635	556.1	130.1
0	23636	556.1	129.1
0	23637	556.1	128.1
0	23638	556.1	127.1
0	23639	556.1	126.1
0	23640	556.1	125.1
0	23641	556.1	124.1
0	23642	556.1	123.1
0	23643	556.1	122.1
0	23644	556.1	121.1
0	23645	556.1	120.1
0	23646	556.1	119.1
0	23647	556.1	118.1
0	23648	556.1	117.1
0	23649	556.1	116.1
0	23650	556.1	115.1
0	23651	556.1	114.1
0	23652	556.1	113.1
0	23653	556.1	112.1
0	23654	556.1	111.1
0	23655	556.1	110.1
0	23656	556.1	109.1
0	23657	556.1	108.1
0	23658	556.1	107.1
0	23659	556.1	106.1
0	23660	556.1	105.1
0	23661	556.1	104.1
0	23662	556.1	103.1
0	23663	556.1	102.1
0	23664	556.1	101.1
0	23665	556.1	100.1
0	23666	556.1	99.1
0	23667	556.1	98.1
0	23668	556.1	97.1
0	23669	556.1	96.1
0	23670	556.1	95.1
0	23671	556.1	94.1
0	23672	556.1	93.1
0	23673	556.1	92.1
0	23674	556.1	91.1
0	23675	556.1	90.1
0	23676	556.1	89.1
0	23677	556.1	88.1
0	23678	556.1	87.1
0	23679	556.1	86.1
0	23680	556.1	85.1
0	23681	556.1	84.1
0	23682	556.1	83.1
0	23683	556.1	82.1
0	23684	556.1	81.1
0	23685	556.1	80.1
0	23686	556.1	79.1
0	23687	556.1	78.1
0	23688	556.1	77.1
0	23689	556.1	76.1
0	23690	556.1	75.1
0	23691	556.1	74.1
0	23692	556.1	73.1
0	23693	556.1	72.1
0	23694	556.1	71.1
0	23695	556.1	70.1
0	23696	556.1	69.1
0	23697	556.1	68.1
0	23698	556.1	67.1
0	23699	556.1	66.1
0	23700	556.1	65.1
0	23701	556.1	64.1
0	23702	556.1	63.1
0	23703	556.1	62.1
0	23704	556.1	61.1
0	23705	556.1	60.1
0	23706	556.1	59.1
0	23707	556.1	58.1
0	23708	556.1	57.1
0	23709	556.1	56.1
0	23710	556.1	55.1
0	23711	556.1	54.1
0	23712	556.1	53.1
0	23713	556.1	52.1
0	23714	556.1	51.1
0	23715	556.1	50.1
0	23716	556.1	49.1
0	23717	556.1	48.1
0	23718	556.1	47.1
0	23719	556.1	46.1
0	23720	556.1	45.1
0	23721	556.1	44.1
0	23722	556.1	43.1
0	23723	556.1	42.1
0	23724	556.1	41.1
0	23725	556.1	40.1
0	23726	556.1	39.1
0	23727	556.1	38.1
0	23728	556.1	37.1
0	23729	556.1	36.1
0	23730	556.1	35.1
0	23731	556.1	34.1
0	23732	556.1	33.1
0	23733	556.1	32.1
0	23734	556.1	31.1
0	23735	556.1	30.1
0	23736	556.1	29.1
0	23737	556.1	28.1
0	23738	556.1	27.1
0	23739	556.1	26.1
0	23740	556.1	25.1
0	23741	556.1	24.1
0	23742	556.1	23.1
0	23743	556.1	22.1
0	23744	556.1	21.1
0	23745	556.1	20.1
0	23746	556.1	19.1
0	23747	556.1	18.1
0	23748	556.1	17.1
0	23749	556.1	16.1
0	23750	556.1	15.1
0	23751	556.1	14.1
0	23752	556.1	13.1
0	23753	556.1	12.1
0	23754	556.1	11.1
0	23755	556.1	10.1
0	23756	556.1	9.1
0	23757	556.1	8.1
0	23758	556.1	7.1
0	23759	556.1	6.1
0	23760	556.1	5.1
0	23761	556.1	4.1
0	23762	556.1	3.1
0	23763	556.1	2.1
0	23789	556.5	1.5
0	23826	557.5	1.5
0	23870	558.5	1.5
0	23909	559.5	1.5
0	23948	560.5	1.5
0	23987	561.5	1.5
0	24026	562.5	1.5
0	24065	563.5	1.5
0	24104	564.5	1.5
0	24143	565.5	1.5
0	24182	566.5	1.5
0	24221	567.5	1.5
0	24260	568.5	1.5
0	24299	569.5	1.5
0	24338	570.5	1.5
0	24377	571.5	1.5
0	24416	572.5	1.5
0	24461	573.5	1.5
0	24502	574.5	1.5
0	24543	575.5	1.5
0	24584	576.5	1.5
0	24629	577.5	1.5
0	24668	578.5	1.5
0	24752	580.5	2.5
0	24753	580.5	1.5
0	24796	581.5	1.5
0	24839	582.5	1.5
0	24880	583.5	1.5
0	24921	584.5	1.5
0	24962	585.5	1.5
0	25003	586.5	1.5
0	25044	587.5	1.5
0	25085	588.5	1.5
0	25126	589.5	1.5
0	25167	590.5	1.5
0	25208	591.5	1.5
0	28193	592.5	1.5
0	28247	593.5	1.5
0	28306	594.5	1.5
0	28362	595.5	1.5
0	28418	596.5	1.5
0	28474	597.5	1.5
0	28530	598.5	1.5
0	28580	599.5	1.5
0	28698	601.6	2.6
0	28699	601.6	1.6
0	28774	602.6	1.6
0	28845	603.6	1.6
0	28910	604.6	1.6
0	28975	605.6	1.6
0	29034	606.6	1.6
0	29130	608.4	1.4
0	29192	609.4	1.4
0	29276	610.4	1.4
0	29322	611	5
0	29382	611.4	1.4
0	29463	612.4	1.4
0	29542	613.4	1.4
0	29621	614.4	1.4
0	29703	615.4	1.4
0	29789	616.4	1.4
0	29871	617.4	1.4
0	30875	640.1	23.1
0	30876	640.1	22.1
0	30877	640.1	21.1
0	30878	640.1	20.1
0	30879	640.1	19.1
0	30880	640.1	18.1
0	30881	640.1	17.1
0	30882	640.1	16.1
0	30883	640.1	15.1
0	30884	640.1	14.1
0	30885	640.1	13.1
0	30886	640.1	12.1
0	30887	640.1	11.1
0	30888	640.1	10.1
0	30889	640.1	9.1
0	30890	640.1	8.1
0	30891	640.1	7.1
0	30892	640.1	6.1
0	30893	640.1	5.1
0	30894	640.1	4.1
0	30895	640.1	3.1
0	33161	683.4	45.4
0	33162	683.4	44.4
0	33163	683.4	43.4
0	33164	683.4	42.4
0	33165	683.4	41.4
0	33166	683.4	40.4
0	33167	683.4	39.4
0	33168	683.4	38.4
0	33169	683.4	37.4
0	33170	683.4	36.4
0	33171	683.4	35.4
0	33172	683.4	34.4
0	33173	683.4	33.4
0	33174	683.4	32.4
0	33175	683.4	31.4
0	33176	683.4	30.4
0	33177	683.4	29.4
0	33178	683.4	28.4
0	33179	683.4	27.4
0	33180	683.4	26.4
0	33181	683.4	25.4
0	33182	683.4	24.4
0	33183	683.4	23.4
0	33184	683.4	22.4
0	33185	683.4	21.4
0	33186	683.4	20.4
0	33187	683.4	19.4
0	33188	683.4	18.4
0	33189	683.4	17.4
0	33190	683.4	16.4
0	33191	683.4	15.4
0	33192	683.4	14.4
0	33193	683.4	13.4
0	33194	683.4	12.4
0	33195	683.4	11.4
0	33196	683.4	10.4
0	33197	683.4	9.4
0	33198	683.4	8.4
0	33199	683.4	7.4
0	33200	683.4	6.4
0	33201	683.4	5.4
0	33202	683.4	4.4
0	33203	683.4	3.4
0	33204	683.4	2.4
0	33440	683.5	1.5
0	33486	684.5	1.5
0	33622	685.5	1.5
0	33673	686.5	1.5
0	33721	687.5	1.5
0	33769	688.5	1.5
0	33817	689.5	1.5
0	33865	690.5	1.5
0	33913	691.5	1.5
0	33961	692.5	1.5
0	34009	693.5	1.5
0	34058	694.5	1.5
0	34108	695.5	1.5
0	34156	696.5	1.5
0	34201	697.5	1.5
0	34252	698.5	1.5
0	34296	699.5	1.5
0	34350	700.5	1.5
0	34400	701.5	1.5
0	34448	702.5	1.5
0	34496	703.5	1.5
0	34544	704.5	1.5
0	34592	705.5	1.5
0	34639	706.5	1.5
0	34690	707.5	1.5
0	34739	708.5	1.5
0	34794	709.5	1.5
0	34843	710.5	1.5
0	34896	711.5	1.5
0	34945	712.5	1.5
0	34994	713.5	1.5
0	35043	714.5	1.5
0	35092	715.5	1.5
0	35141	716.5	1.5
0	35190	717.5	1.5
0	35237	718.5	1.5
0	35284	719.5	1.5
0	35331	720.5	1.5
0	35378	721.5	1.5
0	35425	722.5	1.5
0	35775	733.1	11.1
0	35776	733.1	10.1
0	35777	733.1	9.1
0	35778	733.1	8.1
0	35779	733.1	7.1
0	35780	733.1	6.1
0	35781	733.1	5.1
0	35782	733.1	4.1
0	35783	733.1	3.1
0	37564	771.3	38.3
0	37565	771.3	39.3
0	37566	771.3	40.3
0	37567	771.3	37.3
0	37568	771.3	36.3
0	37569	771.3	35.3
0	37570	771.3	34.3
0	37571	771.3	33.3
0	37572	771.3	32.3
0	37573	771.3	31.3
0	37574	771.3	30.3
0	37575	771.3	29.3
0	37576	771.3	28.3
0	37577	771.3	27.3
0	37578	771.3	26.3
0	37579	771.3	25.3
0	37580	771.3	24.3
0	37581	771.3	23.3
0	37582	771.3	22.3
0	37583	771.3	21.3
0	37584	771.3	20.3
0	37585	771.3	19.3
0	37586	771.3	18.3
0	37587	771.3	17.3
0	37588	771.3	16.3
0	37589	771.3	15.3
0	37590	771.3	14.3
0	37591	771.3	13.3
0	37592	771.3	12.3
0	37593	771.3	11.3
0	37594	771.3	10.3
0	37595	771.3	9.3
0	37596	771.3	8.3
0	37597	771.3	7.3
0	37598	771.3	6.3
0	37599	771.3	5.3
0	37600	771.3	4.3
0	37601	771.3	3.3
0	37602	771.3	2.3
0	37812	771.4	1.4
0	38200	824.4	101.4
0	38241	825.4	101.4
0	38282	826.4	101.4
0	38323	827.4	101.4
0	38369	828.4	101.4
0	38411	829.4	101.4
0	38453	830.4	101.4
0	38489	831.4	101.4
0	38548	834.4	103.4
0	40789	851.2	80.2
0	40790	851.2	79.2
0	40791	851.2	78.2
0	40792	851.2	77.2
0	40793	851.2	76.2
0	40794	851.2	75.2
0	40795	851.2	74.2
0	40796	851.2	73.2
0	40797	851.2	72.2
0	40798	851.2	71.2
0	40799	851.2	70.2
0	40800	851.2	69.2
0	40801	851.2	68.2
0	40802	851.2	67.2
0	40803	851.2	66.2
0	40804	851.2	65.2
0	40805	851.2	64.2
0	40806	851.2	63.2
0	40807	851.2	62.2
0	40808	851.2	61.2
0	40809	851.2	60.2
0	40810	851.2	59.2
0	40811	851.2	58.2
0	40812	851.2	57.2
0	40813	851.2	56.2
0	40814	851.2	55.2
0	40815	851.2	54.2
0	40816	851.2	53.2
0	40817	851.2	52.2
0	40818	851.2	51.2
0	40819	851.2	50.2
0	40820	851.2	49.2
0	40821	851.2	48.2
0	40822	851.2	47.2
0	40823	851.2	46.2
0	40824	851.2	45.2
0	40825	851.2	44.2
0	40826	851.2	43.2
0	40827	851.2	42.2
0	40828	851.2	41.2
0	40829	851.2	40.2
0	40830	851.2	39.2
0	40831	851.2	38.2
0	40832	851.2	37.2
0	40833	851.2	36.2
0	40834	851.2	35.2
0	40835	851.2	34.2
0	40836	851.2	33.2
0	40837	851.2	32.2
0	40838	851.2	31.2
0	40839	851.2	30.2
0	40840	851.2	29.2
0	40841	851.2	28.2
0	40842	851.2	27.2
0	40843	851.2	26.2
0	40844	851.2	25.2
0	40845	851.2	24.2
0	40846	851.2	23.2
0	40847	851.2	22.2
0	40848	851.2	21.2
0	40849	851.2	20.2
0	40850	851.2	19.2
0	40851	851.2	18.2
0	40852	851.2	17.2
0	40853	851.2	16.2
0	40854	851.2	15.2
0	40855	851.2	14.2
0	40856	851.2	13.2
0	40857	851.2	12.2
0	40858	851.2	11.2
0	40859	851.2	10.2
0	40860	851.2	9.2
0	40861	851.2	8.2
0	40862	851.2	7.2
0	40863	851.2	6.2
0	40864	851.2	5.2
0	40865	851.2	4.2
0	40866	851.2	3.2
0	40867	851.2	2.2
0	41276	851.3	1.3
0	41477	852.3	1.3
0	41520	853.3	1.3
0	41563	854.3	1.3
0	41606	855.3	1.3
0	41649	856.3	1.3
0	41692	857.3	1.3
0	41735	858.3	1.3
0	41778	859.3	1.3
0	41822	860.3	1.3
0	41864	861.3	1.3
0	48368	1018.1	157.1
0	48369	1018.1	156.1
0	48370	1018.1	155.1
0	48371	1018.1	154.1
0	48372	1018.1	153.1
0	48373	1018.1	152.1
0	48374	1018.1	151.1
0	48375	1018.1	150.1
0	48376	1018.1	149.1
0	48377	1018.1	148.1
0	48378	1018.1	147.1
0	48379	1018.1	146.1
0	48380	1018.1	145.1
0	48381	1018.1	144.1
0	48382	1018.1	143.1
0	48383	1018.1	142.1
0	48384	1018.1	141.1
0	48385	1018.1	140.1
0	48386	1018.1	139.1
0	48387	1018.1	138.1
0	48388	1018.1	137.1
0	48389	1018.1	136.1
0	48390	1018.1	135.1
0	48391	1018.1	134.1
0	48392	1018.1	133.1
0	48393	1018.1	132.1
0	48394	1018.1	131.1
0	48395	1018.1	130.1
0	48396	1018.1	129.1
0	48397	1018.1	128.1
0	48398	1018.1	127.1
0	48399	1018.1	126.1
0	48400	1018.1	125.1
0	48401	1018.1	124.1
0	48402	1018.1	123.1
0	48403	1018.1	122.1
0	48404	1018.1	121.1
0	48405	1018.1	120.1
0	48406	1018.1	119.1
0	48407	1018.1	118.1
0	48408	1018.1	117.1
0	48409	1018.1	116.1
0	48410	1018.1	115.1
0	48411	1018.1	114.1
0	48412	1018.1	113.1
0	48413	1018.1	112.1
0	48414	1018.1	111.1
0	48415	1018.1	110.1
0	48416	1018.1	109.1
0	48417	1018.1	108.1
0	48418	1018.1	107.1
0	48419	1018.1	106.1
0	48420	1018.1	105.1
0	48421	1018.1	104.1
0	48422	1018.1	103.1
0	48423	1018.1	102.1
0	48424	1018.1	101.1
0	48425	1018.1	100.1
0	48426	1018.1	99.1
0	48427	1018.1	98.1
0	48428	1018.1	97.1
0	48429	1018.1	96.1
0	48430	1018.1	95.1
0	48431	1018.1	94.1
0	48432	1018.1	93.1
0	48433	1018.1	92.1
0	48434	1018.1	91.1
0	48435	1018.1	90.1
0	48436	1018.1	89.1
0	48437	1018.1	88.1
0	48438	1018.1	87.1
0	48439	1018.1	86.1
0	48440	1018.1	85.1
0	48441	1018.1	84.1
0	48442	1018.1	83.1
0	48443	1018.1	82.1
0	48444	1018.1	81.1
0	48445	1018.1	80.1
0	48446	1018.1	79.1
0	48447	1018.1	78.1
0	48448	1018.1	77.1
0	48449	1018.1	76.1
0	48450	1018.1	75.1
0	48451	1018.1	74.1
0	48452	1018.1	73.1
0	48453	1018.1	72.1
0	48454	1018.1	71.1
0	48455	1018.1	70.1
0	48456	1018.1	69.1
0	48457	1018.1	68.1
0	48458	1018.1	67.1
0	48459	1018.1	66.1
0	48460	1018.1	65.1
0	48461	1018.1	64.1
0	48462	1018.1	63.1
0	48463	1018.1	62.1
0	48464	1018.1	61.1
0	48465	1018.1	60.1
0	48466	1018.1	59.1
0	48467	1018.1	58.1
0	48468	1018.1	57.1
0	48469	1018.1	56.1
0	48470	1018.1	55.1
0	48471	1018.1	54.1
0	48472	1018.1	53.1
0	48473	1018.1	52.1
0	48474	1018.1	51.1
0	48475	1018.1	50.1
0	48476	1018.1	49.1
0	48477	1018.1	47.1
0	48478	1018.1	46.1
0	48479	1018.1	45.1
0	48480	1018.1	44.1
0	48481	1018.1	43.1
0	48482	1018.1	42.1
0	48483	1018.1	41.1
0	48484	1018.1	40.1
0	48485	1018.1	39.1
0	48486	1018.1	38.1
0	48487	1018.1	37.1
0	48488	1018.1	36.1
0	48489	1018.1	35.1
0	48490	1018.1	34.1
0	48491	1018.1	33.1
0	48492	1018.1	32.1
0	48493	1018.1	31.1
0	48494	1018.1	30.1
0	48495	1018.1	29.1
0	48496	1018.1	28.1
0	48497	1018.1	27.1
0	48498	1018.1	26.1
0	48499	1018.1	25.1
0	48500	1018.1	24.1
0	48501	1018.1	23.1
0	48502	1018.1	22.1
0	48503	1018.1	21.1
0	48504	1018.1	20.1
0	48505	1018.1	19.1
0	48506	1018.1	18.1
0	48507	1018.1	17.1
0	48508	1018.1	16.1
0	48509	1018.1	15.1
0	48510	1018.1	14.1
0	48511	1018.1	13.1
0	48512	1018.1	12.1
0	48513	1018.1	11.1
0	48514	1018.1	10.1
0	48515	1018.1	9.1
0	48516	1018.1	8.1
0	48517	1018.1	7.1
0	48518	1018.1	6.1
0	48519	1018.1	5.1
0	48520	1018.1	4.1
0	48521	1018.1	3.1
0	48522	1018.1	2.1
0	49325	1018.3	1.3
0	49367	1019.3	1.3
0	49407	1020.3	1.3
0	49447	1021.3	1.3
0	49487	1022.3	1.3
0	49527	1023.3	1.3
0	49567	1024.3	1.3
0	49607	1025.3	1.3
0	49647	1026.3	1.3
0	49672	1027.3	1.3
0	51449	1070.1	32.1
0	51450	1070.1	31.1
0	51451	1070.1	100.1
0	51452	1070.1	43.1
0	51453	1070.1	42.1
0	51454	1070.1	41.1
0	51455	1070.1	40.1
0	51456	1070.1	39.1
0	51457	1070.1	38.1
0	51458	1070.1	37.1
0	51459	1070.1	36.1
0	51460	1070.1	35.1
0	51461	1070.1	34.1
0	51462	1070.1	33.1
0	51463	1070.1	30.1
0	51464	1070.1	29.1
0	51465	1070.1	28.1
0	51466	1070.1	27.1
0	51467	1070.1	26.1
0	51468	1070.1	25.1
0	51469	1070.1	24.1
0	51470	1070.1	23.1
0	51471	1070.1	22.1
0	51472	1070.1	21.1
0	51473	1070.1	20.1
0	51474	1070.1	19.1
0	51475	1070.1	18.1
0	51476	1070.1	17.1
0	51477	1070.1	16.1
0	51478	1070.1	15.1
0	51479	1070.1	14.1
0	51480	1070.1	13.1
0	51481	1070.1	12.1
0	51482	1070.1	11.1
0	51483	1070.1	10.1
0	51484	1070.1	9.1
0	51485	1070.1	8.1
0	51486	1070.1	7.1
0	51487	1070.1	6.1
0	51488	1070.1	5.1
0	51489	1070.1	4.1
0	51490	1070.1	3.1
0	51491	1070.1	2.1
0	51731	1070.5	1.5
0	51773	1071.5	1.5
0	51815	1072.5	1.5
0	51857	1073.5	1.5
0	51899	1074.5	1.5
0	51941	1075.5	1.5
0	51988	1076.5	1.5
0	52031	1077.5	1.5
0	52074	1078.5	1.5
0	52117	1079.5	1.5
0	52160	1080.5	1.5
0	52203	1081.5	1.5
0	52245	1082.5	1.5
0	52289	1083.5	1.5
0	52332	1084.5	1.5
0	52375	1085.5	1.5
0	52418	1086.5	1.5
0	52461	1087.5	1.5
0	52504	1088.5	1.5
0	52547	1089.5	1.5
0	52590	1090.5	1.5
0	52618	1091.5	1.5
0	54462	1143.1	52.1
0	54463	1143.1	51.1
0	54464	1143.1	50.1
0	54465	1143.1	49.1
0	54466	1143.1	48.1
0	54467	1143.1	47.1
0	54468	1143.1	46.1
0	54469	1143.1	45.1
0	54470	1143.1	44.1
0	54471	1143.1	43.1
0	54472	1143.1	42.1
0	54473	1143.1	41.1
0	54474	1143.1	40.1
0	54475	1143.1	39.1
0	54476	1143.1	38.1
0	54477	1143.1	37.1
0	54478	1143.1	36.1
0	54479	1143.1	35.1
0	54480	1143.1	34.1
0	54481	1143.1	33.1
0	54482	1143.1	32.1
0	54483	1143.1	31.1
0	54484	1143.1	30.1
0	54485	1143.1	29.1
0	54486	1143.1	28.1
0	54487	1143.1	27.1
0	54488	1143.1	26.1
0	54489	1143.1	25.1
0	54490	1143.1	24.1
0	54491	1143.1	23.1
0	54492	1143.1	22.1
0	54493	1143.1	21.1
0	54494	1143.1	20.1
0	54495	1143.1	19.1
0	54496	1143.1	18.1
0	54497	1143.1	17.1
0	54498	1143.1	16.1
0	54499	1143.1	15.1
0	54500	1143.1	14.1
0	54501	1143.1	13.1
0	54502	1143.1	12.1
0	54503	1143.1	11.1
0	54504	1143.1	10.1
0	54505	1143.1	9.1
0	54506	1143.1	8.1
0	54507	1143.1	7.1
0	54508	1143.1	6.1
0	54509	1143.1	5.1
0	54510	1143.1	4.1
0	54511	1143.1	3.1
0	54512	1143.1	2.1
0	54793	1143.5	1.5
0	54837	1144.5	1.5
0	54881	1145.5	1.5
0	54924	1146.5	1.5
0	54967	1147.5	1.5
0	55010	1148.5	1.5
0	55053	1149.5	1.5
0	55096	1150.5	1.5
0	55139	1151.5	1.5
0	55182	1152.5	1.5
0	55225	1153.5	1.5
0	55268	1154.5	1.5
0	55311	1155.5	1.5
0	55360	1156.5	1.5
0	55405	1157.5	1.5
0	55450	1158.5	1.5
0	55495	1159.5	1.5
0	55540	1160.5	1.5
0	55585	1161.5	1.5
0	55634	1162.5	1.5
0	55698	1163.5	1.5
0	55745	1164.5	1.5
0	55792	1165.5	1.5
0	55839	1166.5	1.5
0	55890	1167.5	1.5
0	55938	1168.5	1.5
0	55987	1169.5	1.5
0	56076	1170.3	1.3
0	56125	1171.3	1.3
0	56172	1172.3	1.3
0	56219	1173.3	1.3
0	56266	1174.3	1.3
0	56313	1175.3	1.3
0	56360	1176.3	1.3
0	56407	1177.3	1.3
0	56454	1178.3	1.3
0	56501	1179.3	1.3
0	56548	1180.3	1.3
0	56590	1181.3	1.3
0	56657	1183.5	1.5
0	56741	1185.5	2.5
0	56742	1185.5	1.5
0	56808	1186.5	1.5
0	60422	1271.1	85.1
0	60423	1271.1	90.1
0	60424	1271.1	84.1
0	60425	1271.1	83.1
0	60426	1271.1	82.1
0	60427	1271.1	81.1
0	60428	1271.1	80.1
0	60429	1271.1	79.1
0	60430	1271.1	78.1
0	60431	1271.1	77.1
0	60432	1271.1	76.1
0	60433	1271.1	75.1
0	60434	1271.1	74.1
0	60435	1271.1	73.1
0	60436	1271.1	72.1
0	60437	1271.1	71.1
0	60438	1271.1	70.1
0	60439	1271.1	69.1
0	60440	1271.1	68.1
0	60441	1271.1	67.1
0	60442	1271.1	66.1
0	60443	1271.1	65.1
0	60444	1271.1	64.1
0	60445	1271.1	63.1
0	60446	1271.1	62.1
0	60447	1271.1	61.1
0	60448	1271.1	60.1
0	60449	1271.1	59.1
0	60450	1271.1	58.1
0	60451	1271.1	57.1
0	60452	1271.1	56.1
0	60453	1271.1	55.1
0	60454	1271.1	54.1
0	60455	1271.1	53.1
0	60456	1271.1	52.1
0	60457	1271.1	51.1
0	60458	1271.1	50.1
0	60459	1271.1	49.1
0	60460	1271.1	48.1
0	60461	1271.1	47.1
0	60462	1271.1	46.1
0	60463	1271.1	45.1
0	60464	1271.1	44.1
0	60465	1271.1	43.1
0	60466	1271.1	42.1
0	60467	1271.1	41.1
0	60468	1271.1	40.1
0	60469	1271.1	39.1
0	60470	1271.1	38.1
0	60471	1271.1	37.1
0	60472	1271.1	36.1
0	60473	1271.1	35.1
0	60474	1271.1	34.1
0	60475	1271.1	33.1
0	60476	1271.1	32.1
0	60477	1271.1	31.1
0	60478	1271.1	30.1
0	60479	1271.1	29.1
0	60480	1271.1	28.1
0	60481	1271.1	27.1
0	60482	1271.1	26.1
0	60483	1271.1	25.1
0	60484	1271.1	24.1
0	60485	1271.1	23.1
0	60486	1271.1	22.1
0	60487	1271.1	21.1
0	60488	1271.1	20.1
0	60489	1271.1	19.1
0	60490	1271.1	18.1
0	60491	1271.1	17.1
0	60492	1271.1	16.1
0	60493	1271.1	15.1
0	60494	1271.1	14.1
0	60495	1271.1	13.1
0	60496	1271.1	12.1
0	60497	1271.1	11.1
0	60498	1271.1	10.1
0	60499	1271.1	9.1
0	60500	1271.1	8.1
0	60501	1271.1	7.1
0	60502	1271.1	6.1
0	60503	1271.1	5.1
0	60504	1271.1	4.1
0	60505	1271.1	3.1
0	60506	1271.1	2.1
0	68485	1325.1	53.1
0	68486	1325.1	42.1
0	68487	1325.1	31.1
0	68488	1325.1	55.1
0	68489	1325.1	44.1
0	68490	1325.1	33.1
0	68491	1325.1	46.1
0	68492	1325.1	35.1
0	68493	1325.1	24.1
0	68494	1325.1	48.1
0	68495	1325.1	37.1
0	68496	1325.1	26.1
0	68497	1325.1	50.1
0	68498	1325.1	39.1
0	68499	1325.1	28.1
0	68500	1325.1	52.1
0	68501	1325.1	41.1
0	68502	1325.1	30.1
0	68503	1325.1	54.1
0	68504	1325.1	43.1
0	68505	1325.1	32.1
0	68506	1325.1	45.1
0	68507	1325.1	34.1
0	68508	1325.1	23.1
0	68509	1325.1	47.1
0	68510	1325.1	36.1
0	68511	1325.1	25.1
0	68512	1325.1	49.1
0	68513	1325.1	38.1
0	68514	1325.1	27.1
0	68515	1325.1	51.1
0	68516	1325.1	40.1
0	68517	1325.1	29.1
0	68518	1325.1	22.1
0	68519	1325.1	21.1
0	68520	1325.1	20.1
0	68521	1325.1	19.1
0	68522	1325.1	18.1
0	68523	1325.1	17.1
0	68524	1325.1	16.1
0	68525	1325.1	15.1
0	68526	1325.1	14.1
0	68527	1325.1	13.1
0	68528	1325.1	12.1
0	68529	1325.1	11.1
0	68530	1325.1	10.1
0	68531	1325.1	9.1
0	68532	1325.1	8.1
0	68533	1325.1	7.1
0	68534	1325.1	6.1
0	68535	1325.1	5.1
0	68536	1325.1	4.1
0	68537	1325.1	3.1
0	68538	1325.1	2.1
0	69108	1325.3	1.3
0	69158	1326.3	1.3
0	69208	1327.3	1.3
0	69258	1328.3	1.3
0	69308	1329.3	1.3
0	69361	1330.3	1.3
0	69414	1331.3	1.3
0	69452	1332.3	1.3
0	69490	1333.3	1.3
0	69548	1334.3	1.3
0	69596	1335.3	1.3
0	69642	1336.3	1.3
0	69689	1337.3	1.3
0	69735	1338.3	1.3
0	69782	1339.3	1.3
0	69827	1340.3	1.3
0	69876	1341.3	1.3
0	69926	1342.3	1.3
0	69972	1343.3	1.3
0	70020	1344.3	1.3
0	70073	1345.3	1.3
0	70120	1346.3	1.3
0	70167	1347.3	1.3
0	70214	1348.3	1.3
0	70261	1349.3	1.3
0	70302	1350.3	1.3
0	70701	1360.2	10.2
0	70702	1360.2	9.2
0	70703	1360.2	8.2
0	70704	1360.2	7.2
0	70705	1360.2	6.2
0	70706	1360.2	5.2
0	70707	1360.2	4.2
0	70708	1360.2	3.2
0	74390	1451.1	93.1
0	74391	1451.1	92.1
0	74392	1451.1	91.1
0	74393	1451.1	90.1
0	74394	1451.1	89.1
0	74395	1451.1	88.1
0	74396	1451.1	87.1
0	74397	1451.1	86.1
0	74398	1451.1	85.1
0	74399	1451.1	84.1
0	74400	1451.1	83.1
0	74401	1451.1	82.1
0	74402	1451.1	81.1
0	74403	1451.1	80.1
0	74404	1451.1	79.1
0	74405	1451.1	78.1
0	74406	1451.1	77.1
0	74407	1451.1	76.1
0	74408	1451.1	75.1
0	74409	1451.1	74.1
0	74410	1451.1	73.1
0	74411	1451.1	72.1
0	74412	1451.1	71.1
0	74413	1451.1	70.1
0	74414	1451.1	69.1
0	74415	1451.1	68.1
0	74416	1451.1	67.1
0	74417	1451.1	66.1
0	74418	1451.1	65.1
0	74419	1451.1	64.1
0	74420	1451.1	63.1
0	74421	1451.1	62.1
0	74422	1451.1	61.1
0	74423	1451.1	60.1
0	74424	1451.1	59.1
0	74425	1451.1	58.1
0	74426	1451.1	57.1
0	74427	1451.1	56.1
0	74428	1451.1	55.1
0	74429	1451.1	54.1
0	74430	1451.1	53.1
0	74431	1451.1	52.1
0	74432	1451.1	51.1
0	74433	1451.1	50.1
0	74434	1451.1	49.1
0	74435	1451.1	48.1
0	74436	1451.1	47.1
0	74437	1451.1	46.1
0	74438	1451.1	45.1
0	74439	1451.1	44.1
0	74440	1451.1	43.1
0	74441	1451.1	42.1
0	74442	1451.1	41.1
0	74443	1451.1	40.1
0	74444	1451.1	39.1
0	74445	1451.1	38.1
0	74446	1451.1	37.1
0	74447	1451.1	36.1
0	74448	1451.1	35.1
0	74449	1451.1	34.1
0	74450	1451.1	33.1
0	74451	1451.1	32.1
0	74452	1451.1	31.1
0	74453	1451.1	30.1
0	74454	1451.1	29.1
0	74455	1451.1	28.1
0	74456	1451.1	27.1
0	74457	1451.1	26.1
0	74458	1451.1	25.1
0	74459	1451.1	24.1
0	74460	1451.1	23.1
0	74461	1451.1	22.1
0	74462	1451.1	21.1
0	74463	1451.1	20.1
0	74464	1451.1	19.1
0	74465	1451.1	18.1
0	74466	1451.1	17.1
0	74467	1451.1	16.1
0	74468	1451.1	15.1
0	74469	1451.1	14.1
0	74470	1451.1	13.1
0	74471	1451.1	12.1
0	74472	1451.1	11.1
0	74473	1451.1	10.1
0	74474	1451.1	9.1
0	74475	1451.1	8.1
0	74476	1451.1	7.1
0	74477	1451.1	6.1
0	74478	1451.1	5.1
0	74479	1451.1	4.1
0	74480	1451.1	3.1
0	74481	1451.1	2.1
0	74967	1451.5	1.5
0	75009	1452.5	1.5
0	75051	1453.5	1.5
0	75093	1454.5	1.5
0	75135	1455.5	1.5
0	75177	1456.5	1.5
0	75219	1457.5	1.5
0	75254	1458.5	1.5
0	75399	1462.4	4.4
0	75400	1462.4	3.4
0	75401	1462.4	2.4
0	75430	1462.5	1.5
0	75469	1463.5	1.5
0	75518	1464.5	1.5
0	75559	1465.5	1.5
0	75600	1466.5	1.5
0	75641	1467.5	1.5
0	75682	1468.5	1.5
0	75723	1469.5	1.5
0	75764	1470.5	1.5
0	75805	1471.5	1.5
0	75846	1472.5	1.5
0	75887	1473.5	1.5
0	75928	1474.5	1.5
0	75969	1475.5	1.5
0	75996	1476.5	1.5
0	76388	1490.5	14.5
0	76389	1490.5	13.5
0	76390	1490.5	12.5
0	76391	1490.5	11.5
0	76392	1490.5	10.5
0	76393	1490.5	9.5
0	76394	1490.5	8.5
0	76395	1490.5	7.5
0	76396	1490.5	6.5
0	76397	1490.5	5.5
0	76398	1490.5	4.5
0	76399	1490.5	3.5
0	76400	1490.5	2.5
0	76401	1490.5	1.5
0	76506	1491.5	1.5
0	76574	1492.5	1.5
0	76622	1493.5	1.5
0	76664	1494.5	1.5
0	76706	1495.5	1.5
0	76748	1496.5	1.5
0	76790	1497.5	1.5
0	76832	1498.5	1.5
0	76876	1499.5	1.5
0	76917	1500.5	1.5
0	76958	1501.5	1.5
0	76999	1502.5	1.5
0	77043	1503.5	1.5
0	77085	1504.5	1.5
0	77127	1505.5	1.5
0	77218	1506.5	1.5
0	77261	1507.5	1.5
0	77355	1508.5	1.5
0	77399	1509.5	1.5
0	77443	1510.5	1.5
0	77487	1511.5	1.5
0	77531	1512.5	1.5
0	77575	1513.5	1.5
0	77619	1514.5	1.5
0	77663	1515.5	1.5
0	77707	1516.5	1.5
0	77751	1517.5	1.5
0	77831	1519.5	1.5
0	77881	1520.5	1.5
0	77913	1521.1	4.1
0	77939	1521.5	1.5
0	77981	1522.5	1.5
0	78019	1523.5	1.5
0	78057	1524.5	1.5
0	78098	1525.5	1.5
0	78137	1526.5	1.5
0	78176	1527.5	1.5
0	78215	1528.5	1.5
0	78254	1529.5	1.5
0	78293	1530.5	1.5
0	78787	1547.1	17.1
0	78788	1547.1	16.1
0	78789	1547.1	15.1
0	78790	1547.1	14.1
0	78791	1547.1	13.1
0	78792	1547.1	12.1
0	78793	1547.1	11.1
0	78794	1547.1	10.1
0	78795	1547.1	9.1
0	80715	1584.4	45.4
0	80716	1584.4	44.4
0	80717	1584.4	43.4
0	80718	1584.4	42.4
0	80719	1584.4	41.4
0	80720	1584.4	40.4
0	80721	1584.4	39.4
0	80722	1584.4	38.4
0	80723	1584.4	37.4
0	80724	1584.4	36.4
0	80725	1584.4	35.4
0	80726	1584.4	34.4
0	80727	1584.4	33.4
0	80728	1584.4	32.4
0	80729	1584.4	31.4
0	80730	1584.4	30.4
0	80731	1584.4	29.4
0	80732	1584.4	28.4
0	80733	1584.4	27.4
0	80734	1584.4	26.4
0	80735	1584.4	25.4
0	80736	1584.4	24.4
0	80737	1584.4	23.4
0	80738	1584.4	22.4
0	80739	1584.4	21.4
0	80740	1584.4	20.4
0	80741	1584.4	19.4
0	80742	1584.4	18.4
0	80743	1584.4	17.4
0	80744	1584.4	16.4
0	80745	1584.4	15.4
0	80746	1584.4	14.4
0	80747	1584.4	13.4
0	80748	1584.4	12.4
0	80749	1584.4	11.4
0	80750	1584.4	10.4
0	80751	1584.4	9.4
0	80752	1584.4	8.4
0	80753	1584.4	7.4
0	80754	1584.4	6.4
0	80755	1584.4	5.4
0	80756	1584.4	4.4
0	80757	1584.4	3.4
0	80758	1584.4	2.4
0	80759	1584.4	1.4
0	81125	1585.4	1.4
0	81183	1586.4	1.4
0	81241	1587.4	1.4
0	81299	1588.4	1.4
0	81385	1589.4	1.4
0	81459	1590.4	1.4
0	81520	1591.4	1.4
0	81581	1592.4	1.4
0	81642	1593.4	1.4
0	81703	1594.4	1.4
0	81764	1595.4	1.4
0	81825	1596.4	1.4
0	81886	1597.4	1.4
0	81945	1598.4	1.4
0	81998	1599.4	1.4
0	82061	1601.5	1.5
0	82365	1610.1	9.1
0	82366	1610.1	8.1
0	82367	1610.1	7.1
0	82368	1610.1	6.1
0	82369	1610.1	5.1
0	82370	1610.1	4.1
0	82371	1610.1	3.1
0	82372	1610.1	2.1
0	82440	1610.5	1.5
0	82485	1611.5	1.5
0	82524	1612.5	1.5
0	83188	1628.2	16.2
0	83189	1628.2	15.2
0	83190	1628.2	29.2
0	83191	1628.2	14.2
0	83192	1628.2	13.2
0	83193	1628.2	12.2
0	83194	1628.2	11.2
0	83195	1628.2	10.2
0	83196	1628.2	9.2
0	83197	1628.2	8.2
0	83198	1628.2	7.2
0	83199	1628.2	6.2
0	83200	1628.2	5.2
0	83201	1628.2	4.2
0	83202	1628.2	3.2
0	83203	1628.2	2.2
0	83297	1628.4	1.4
0	83407	1631.3	3.3
0	83408	1631.3	2.3
0	83409	1631.3	1.3
0	83460	1632.3	1.3
0	83497	1633.3	1.3
0	83534	1634.3	1.3
0	83571	1635.3	1.3
0	83608	1636.3	1.3
0	83645	1637.3	1.3
0	83682	1638.3	1.3
0	83718	1639.3	1.3
0	83753	1640.3	1.3
0	83790	1641.3	1.3
0	83825	1642.3	1.3
0	83860	1643.3	1.3
0	83895	1644.3	1.3
0	83930	1645.3	1.3
0	83965	1646.3	1.3
0	84009	1647.3	1.3
0	84044	1648.3	1.3
0	84080	1649.3	1.3
0	84114	1650.3	1.3
0	84153	1651.3	1.3
0	84189	1652.3	1.3
0	84225	1653.3	1.3
0	84261	1654.3	1.3
0	84297	1655.3	1.3
0	84333	1656.3	1.3
0	84369	1657.3	1.3
0	84407	1658.3	1.3
0	84442	1659.3	1.3
0	84477	1660.3	1.3
0	84512	1661.3	1.3
0	84547	1662.3	1.3
0	84582	1663.3	1.3
0	84620	1664.3	1.3
0	84668	1665.4	1.4
0	84703	1666.4	1.4
0	84738	1667.4	1.4
0	84773	1668.4	1.4
0	84813	1669.4	1.4
0	84850	1670.4	1.4
0	84887	1671.4	1.4
0	84924	1672.4	1.4
0	84963	1673.4	1.4
0	85000	1674.4	1.4
0	85037	1675.4	1.4
0	85074	1676.4	1.4
0	85111	1677.4	1.4
0	85145	1678.4	1.4
0	86622	1701.3	23.3
0	86623	1701.3	22.3
0	86624	1701.3	21.3
0	86625	1701.3	20.3
0	86626	1701.3	19.3
0	86627	1701.3	18.3
0	86628	1701.3	17.3
0	86629	1701.3	16.3
0	86630	1701.3	15.3
0	86631	1701.3	14.3
0	86632	1701.3	13.3
0	86633	1701.3	12.3
0	86634	1701.3	11.3
0	86635	1701.3	10.3
0	86636	1701.3	9.3
0	86637	1701.3	8.3
0	86638	1701.3	7.3
0	86639	1701.3	6.3
0	86640	1701.3	5.3
0	86641	1701.3	4.3
0	86642	1701.3	3.3
0	86643	1701.3	103.3
0	86644	1701.3	2.3
0	86662	1701.4	1.4
0	86676	1701.5	101.5
0	86683	1701.6	101.6
0	86777	1702.4	1.4
0	86820	1703.4	1.4
0	86907	1706.1	3.1
0	86908	1706.1	2.1
0	86935	1706.3	1.3
0	86973	1707.3	1.3
0	87011	1708.3	1.3
0	87049	1709.3	1.3
0	87095	1710.3	1.3
0	87153	1711.3	1.3
0	87335	1712.3	1.3
0	87349	1712.4	101.4
0	87610	1713.3	1.3
0	87737	1714.3	1.3
0	87782	1715.3	1.3
0	87823	1716.3	1.3
0	87864	1717.3	1.3
0	87905	1718.3	1.3
0	87946	1719.3	1.3
0	88000	1720.3	1.3
0	88047	1721.3	1.3
0	88088	1722.3	1.3
0	88129	1723.3	1.3
0	88170	1724.3	1.3
0	88211	1725.3	1.3
0	88252	1726.3	1.3
0	88310	1727.3	1.3
0	88366	1728.3	1.3
0	88405	1729.3	1.3
0	88450	1730.3	1.3
0	88494	1731.3	1.3
0	88536	1732.3	1.3
0	88578	1733.3	1.3
0	88620	1734.3	1.3
0	88662	1735.3	1.3
0	88705	1736.3	1.3
0	88747	1737.3	1.3
0	88787	1738.3	1.3
0	88827	1739.3	1.3
0	88867	1740.3	1.3
0	88907	1741.3	1.3
0	88947	1742.3	1.3
0	88987	1743.3	1.3
0	89032	1744.3	1.3
0	89075	1745.3	1.3
0	89116	1746.3	1.3
0	89157	1747.3	1.3
0	89202	1748.3	1.3
0	89243	1749.3	1.3
0	89284	1750.3	1.3
0	89325	1751.3	1.3
0	89366	1752.3	1.3
0	89407	1753.3	1.3
0	89448	1754.3	1.3
0	89489	1755.3	1.3
0	89530	1756.3	1.3
0	89571	1757.3	1.3
0	89612	1758.3	1.3
0	89657	1759.3	1.3
0	89742	1761.3	1.3
0	89800	1762.3	1.3
0	89820	1762.5	3.5
0	89847	1763.3	1.3
0	89875	1765.4	101.4
0	89894	1766.4	101.4
0	89913	1767.4	101.4
0	89932	1768.4	101.4
0	89953	1769.4	101.4
0	89973	1770.4	101.4
0	89991	1771.4	101.4
0	90009	1772.4	101.4
0	90027	1773.4	101.4
0	90045	1774.4	101.4
0	90063	1775.4	101.4
0	90081	1776.4	101.4
0	90099	1777.4	101.4
0	90706	1778.4	101.4
0	91725	1790.3	27.3
0	91726	1790.3	26.3
0	91727	1790.3	25.3
0	91728	1790.3	24.3
0	91729	1790.3	23.3
0	91730	1790.3	22.3
0	91731	1790.3	21.3
0	91732	1790.3	20.3
0	91733	1790.3	19.3
0	91734	1790.3	18.3
0	91735	1790.3	17.3
0	91736	1790.3	16.3
0	91737	1790.3	15.3
0	91738	1790.3	14.3
0	91739	1790.3	13.3
0	91740	1790.3	12.3
0	91741	1790.3	11.3
0	91742	1790.3	10.3
0	91743	1790.3	9.3
0	91744	1790.3	8.3
0	91745	1790.3	7.3
0	91746	1790.3	6.3
0	91747	1790.3	5.3
0	91748	1790.3	4.3
0	91749	1790.3	3.3
0	91750	1790.3	2.3
0	91751	1790.3	1.3
0	92116	1791.3	1.3
0	92167	1792.3	1.3
0	92218	1793.3	1.3
0	92269	1794.3	1.3
0	92325	1795.3	1.3
0	92378	1796.3	1.3
0	92431	1797.3	1.3
0	92484	1798.3	1.3
0	92536	1799.3	1.3
0	92790	1804.5	4.5
0	92791	1804.5	3.5
0	92792	1804.5	2.5
0	92793	1804.5	1.5
0	92876	1805.5	1.5
0	92958	1806.5	1.5
0	93014	1807.5	1.5
0	93070	1808.5	1.5
0	93126	1809.5	1.5
0	93181	1810.5	1.5
0	93238	1811.5	1.5
0	93294	1812.5	1.5
0	93349	1813.5	1.5
0	93404	1814.5	1.5
0	93459	1815.5	1.5
0	93517	1816.5	1.5
0	93573	1817.5	1.5
0	93623	1818.5	1.5
0	93724	1820.5	2.5
0	93725	1820.5	1.5
0	93791	1821.5	1.5
0	93847	1822.5	1.5
0	93903	1823.5	1.5
0	93959	1824.5	1.5
0	94015	1825.5	1.5
0	94071	1826.5	1.5
0	94127	1827.5	1.5
0	94183	1828.5	1.5
0	94239	1829.5	1.5
0	94295	1830.5	1.5
0	94351	1831.5	1.5
0	94407	1832.5	1.5
0	94463	1833.5	1.5
0	94519	1834.5	1.5
0	94575	1835.5	1.5
0	94631	1836.5	1.5
0	94684	1837.5	1.5
0	103361	2050.1	213.1
0	103362	2050.1	212.1
0	103363	2050.1	211.1
0	103364	2050.1	210.1
0	103365	2050.1	209.1
0	103366	2050.1	208.1
0	103367	2050.1	207.1
0	103368	2050.1	206.1
0	103369	2050.1	205.1
0	103370	2050.1	204.1
0	103371	2050.1	203.1
0	103372	2050.1	202.1
0	103373	2050.1	201.1
0	103374	2050.1	200.1
0	103375	2050.1	199.1
0	103376	2050.1	198.1
0	103377	2050.1	197.1
0	103378	2050.1	196.1
0	103379	2050.1	251.1
0	103380	2050.1	195.1
0	103381	2050.1	194.1
0	103382	2050.1	193.1
0	103383	2050.1	192.1
0	103384	2050.1	191.1
0	103385	2050.1	190.1
0	103386	2050.1	189.1
0	103387	2050.1	188.1
0	103388	2050.1	187.1
0	103389	2050.1	186.1
0	103390	2050.1	185.1
0	103391	2050.1	184.1
0	103392	2050.1	183.1
0	103393	2050.1	182.1
0	103394	2050.1	181.1
0	103395	2050.1	180.1
0	103396	2050.1	179.1
0	103397	2050.1	178.1
0	103398	2050.1	177.1
0	103399	2050.1	176.1
0	103400	2050.1	175.1
0	103401	2050.1	174.1
0	103402	2050.1	173.1
0	103403	2050.1	172.1
0	103404	2050.1	171.1
0	103405	2050.1	170.1
0	103406	2050.1	169.1
0	103407	2050.1	168.1
0	103408	2050.1	167.1
0	103409	2050.1	166.1
0	103410	2050.1	165.1
0	103411	2050.1	164.1
0	103412	2050.1	163.1
0	103413	2050.1	162.1
0	103414	2050.1	161.1
0	103415	2050.1	160.1
0	103416	2050.1	159.1
0	103417	2050.1	158.1
0	103418	2050.1	157.1
0	103419	2050.1	156.1
0	103420	2050.1	155.1
0	103421	2050.1	154.1
0	103422	2050.1	153.1
0	103423	2050.1	152.1
0	103424	2050.1	151.1
0	103425	2050.1	150.1
0	103426	2050.1	149.1
0	103427	2050.1	148.1
0	103428	2050.1	147.1
0	103429	2050.1	146.1
0	103430	2050.1	145.1
0	103431	2050.1	144.1
0	103432	2050.1	143.1
0	103433	2050.1	142.1
0	103434	2050.1	141.1
0	103435	2050.1	140.1
0	103436	2050.1	139.1
0	103437	2050.1	138.1
0	103438	2050.1	137.1
0	103439	2050.1	136.1
0	103440	2050.1	135.1
0	103441	2050.1	134.1
0	103442	2050.1	133.1
0	103443	2050.1	132.1
0	103444	2050.1	131.1
0	103445	2050.1	130.1
0	103446	2050.1	129.1
0	103447	2050.1	128.1
0	103448	2050.1	127.1
0	103449	2050.1	126.1
0	103450	2050.1	125.1
0	103451	2050.1	124.1
0	103452	2050.1	123.1
0	103453	2050.1	122.1
0	103454	2050.1	121.1
0	103455	2050.1	120.1
0	103456	2050.1	119.1
0	103457	2050.1	118.1
0	103458	2050.1	117.1
0	103459	2050.1	116.1
0	103460	2050.1	115.1
0	103461	2050.1	114.1
0	103462	2050.1	113.1
0	103463	2050.1	112.1
0	103464	2050.1	111.1
0	103465	2050.1	110.1
0	103466	2050.1	109.1
0	103467	2050.1	108.1
0	103468	2050.1	107.1
0	103469	2050.1	106.1
0	103470	2050.1	105.1
0	103471	2050.1	104.1
0	103472	2050.1	103.1
0	103473	2050.1	102.1
0	103474	2050.1	101.1
0	103475	2050.1	100.1
0	103476	2050.1	99.1
0	103477	2050.1	98.1
0	103478	2050.1	97.1
0	103479	2050.1	96.1
0	103480	2050.1	95.1
0	103481	2050.1	94.1
0	103482	2050.1	93.1
0	103483	2050.1	92.1
0	103484	2050.1	91.1
0	103485	2050.1	90.1
0	103486	2050.1	89.1
0	103487	2050.1	88.1
0	103488	2050.1	87.1
0	103489	2050.1	86.1
0	103490	2050.1	85.1
0	103491	2050.1	84.1
0	103492	2050.1	83.1
0	103493	2050.1	82.1
0	103494	2050.1	81.1
0	103495	2050.1	80.1
0	103496	2050.1	79.1
0	103497	2050.1	78.1
0	103498	2050.1	77.1
0	103499	2050.1	76.1
0	103500	2050.1	75.1
0	103501	2050.1	74.1
0	103502	2050.1	73.1
0	103503	2050.1	72.1
0	103504	2050.1	71.1
0	103505	2050.1	70.1
0	103506	2050.1	69.1
0	103507	2050.1	68.1
0	103508	2050.1	67.1
0	103509	2050.1	66.1
0	103510	2050.1	65.1
0	103511	2050.1	64.1
0	103512	2050.1	63.1
0	103513	2050.1	62.1
0	103514	2050.1	61.1
0	103515	2050.1	60.1
0	103516	2050.1	59.1
0	103517	2050.1	58.1
0	103518	2050.1	57.1
0	103519	2050.1	56.1
0	103520	2050.1	55.1
0	103521	2050.1	54.1
0	103522	2050.1	53.1
0	103523	2050.1	52.1
0	103524	2050.1	51.1
0	103525	2050.1	50.1
0	103526	2050.1	49.1
0	103527	2050.1	48.1
0	103528	2050.1	47.1
0	103529	2050.1	46.1
0	103530	2050.1	45.1
0	103531	2050.1	44.1
0	103532	2050.1	43.1
0	103533	2050.1	42.1
0	103534	2050.1	41.1
0	103535	2050.1	40.1
0	103536	2050.1	39.1
0	103537	2050.1	38.1
0	103538	2050.1	37.1
0	103539	2050.1	36.1
0	103540	2050.1	35.1
0	103541	2050.1	34.1
0	103542	2050.1	33.1
0	103543	2050.1	32.1
0	103544	2050.1	31.1
0	103545	2050.1	30.1
0	103546	2050.1	29.1
0	103547	2050.1	28.1
0	103548	2050.1	27.1
0	103549	2050.1	26.1
0	103550	2050.1	25.1
0	103551	2050.1	24.1
0	103552	2050.1	23.1
0	103553	2050.1	22.1
0	103554	2050.1	21.1
0	103555	2050.1	20.1
0	103556	2050.1	19.1
0	103557	2050.1	18.1
0	103558	2050.1	17.1
0	103559	2050.1	16.1
0	103560	2050.1	15.1
0	103561	2050.1	14.1
0	103562	2050.1	13.1
0	103563	2050.1	12.1
0	103564	2050.1	11.1
0	103565	2050.1	10.1
0	103566	2050.1	9.1
0	103567	2050.1	8.1
0	103568	2050.1	7.1
0	103569	2050.1	6.1
0	103570	2050.1	5.1
0	103571	2050.1	4.1
0	103572	2050.1	3.1
0	103573	2050.1	2.1
0	104665	2050.5	1.5
0	104709	2051.5	1.5
0	104753	2052.5	1.5
0	104797	2053.5	1.5
0	104841	2054.5	1.5
0	104885	2055.5	1.5
0	104929	2056.5	1.5
0	104972	2057.5	1.5
0	105014	2058.5	1.5
0	105056	2059.5	1.5
0	105098	2060.5	1.5
0	105141	2061.5	1.5
0	105183	2062.5	1.5
0	105225	2063.5	1.5
0	105267	2064.5	1.5
0	105309	2065.5	1.5
0	105352	2066.5	1.5
0	105393	2067.5	1.5
0	105434	2068.5	1.5
0	105469	2069.5	1.5
0	105554	2071.6	2.6
0	105555	2071.6	1.6
0	106312	2091.6	20.6
0	106313	2091.6	19.6
0	106314	2091.6	18.6
0	106315	2091.6	17.6
0	106316	2091.6	16.6
0	106317	2091.6	15.6
0	106318	2091.6	14.6
0	106319	2091.6	13.6
0	106320	2091.6	12.6
0	106321	2091.6	11.6
0	106322	2091.6	10.6
0	106323	2091.6	9.6
0	106324	2091.6	8.6
0	106325	2091.6	7.6
0	106326	2091.6	6.6
0	106327	2091.6	5.6
0	106328	2091.6	4.6
0	106329	2091.6	3.6
0	106330	2091.6	2.6
0	106331	2091.6	1.6
0	106477	2092.6	1.6
0	106573	2093.6	1.6
0	106633	2094.6	1.6
0	106689	2095.6	1.6
0	106745	2096.6	1.6
0	106801	2097.6	1.6
0	106857	2098.6	1.6
0	106914	2099.6	1.6
0	106964	2100.6	1.6
0	107039	2102.5	2.5
0	107040	2102.5	1.5
0	107135	2103.5	1.5
0	107190	2104.5	1.5
0	107361	2105.5	1.5
0	107758	2113.1	8.1
0	107759	2113.1	7.1
0	107760	2113.1	6.1
0	107761	2113.1	5.1
0	107762	2113.1	4.1
0	107763	2113.1	3.1
0	107764	2113.1	2.1
0	107828	2113.5	1.5
0	107880	2114.5	1.5
0	107932	2115.5	1.5
0	107984	2116.5	1.5
0	108036	2117.5	1.5
0	108088	2118.5	1.5
0	108140	2119.5	1.5
0	108192	2120.5	1.5
0	108244	2121.5	1.5
0	108296	2122.5	1.5
0	108348	2123.5	1.5
0	108400	2124.5	1.5
0	108452	2125.5	1.5
0	108504	2126.5	1.5
0	108556	2127.5	1.5
0	108608	2128.5	1.5
0	108660	2129.5	1.5
0	108712	2130.5	1.5
0	108764	2131.5	1.5
0	108816	2132.5	1.5
0	108868	2133.5	1.5
0	108920	2134.5	1.5
0	108972	2135.5	1.5
0	109029	2136.5	1.5
0	109083	2137.5	1.5
0	109137	2138.5	1.5
0	109191	2139.5	1.5
0	109245	2140.5	1.5
0	109303	2141.5	1.5
0	109358	2142.5	1.5
0	109413	2143.5	1.5
0	109472	2144.5	1.5
0	109611	2146.4	2.4
0	109612	2146.4	1.4
0	109679	2147.4	1.4
0	109740	2148.4	1.4
0	109799	2149.4	1.4
0	110066	2150.4	1.4
0	110141	2152.5	1.5
0	110212	2153.5	1.5
0	110249	2154.5	1.5
0	111902	2177.3	27.3
0	112099	2200.5	101.5
0	118439	2327.6	173.6
0	118440	2327.6	172.6
0	118441	2327.6	171.6
0	118442	2327.6	170.6
0	118443	2327.6	169.6
0	118444	2327.6	168.6
0	118445	2327.6	167.6
0	118446	2327.6	166.6
0	118447	2327.6	165.6
0	118448	2327.6	164.6
0	118449	2327.6	163.6
0	118450	2327.6	162.6
0	118451	2327.6	161.6
0	118452	2327.6	160.6
0	118453	2327.6	159.6
0	118454	2327.6	158.6
0	118455	2327.6	157.6
0	118456	2327.6	156.6
0	118457	2327.6	155.6
0	118458	2327.6	154.6
0	118459	2327.6	153.6
0	118460	2327.6	152.6
0	118461	2327.6	151.6
0	118462	2327.6	150.6
0	118463	2327.6	149.6
0	118464	2327.6	148.6
0	118465	2327.6	147.6
0	118466	2327.6	146.6
0	118467	2327.6	145.6
0	118468	2327.6	144.6
0	118469	2327.6	143.6
0	118470	2327.6	142.6
0	118471	2327.6	141.6
0	118472	2327.6	140.6
0	118473	2327.6	139.6
0	118474	2327.6	138.6
0	118475	2327.6	137.6
0	118476	2327.6	136.6
0	118477	2327.6	135.6
0	118478	2327.6	134.6
0	118479	2327.6	133.6
0	118480	2327.6	132.6
0	118481	2327.6	131.6
0	118482	2327.6	130.6
0	118483	2327.6	129.6
0	118484	2327.6	128.6
0	118485	2327.6	127.6
0	118486	2327.6	126.6
0	118487	2327.6	125.6
0	118488	2327.6	124.6
0	118489	2327.6	123.6
0	118490	2327.6	122.6
0	118491	2327.6	121.6
0	118492	2327.6	120.6
0	118493	2327.6	119.6
0	118494	2327.6	118.6
0	118495	2327.6	117.6
0	118496	2327.6	116.6
0	118497	2327.6	115.6
0	118498	2327.6	114.6
0	118499	2327.6	113.6
0	118500	2327.6	112.6
0	118501	2327.6	111.6
0	118502	2327.6	110.6
0	118503	2327.6	109.6
0	118504	2327.6	108.6
0	118505	2327.6	107.6
0	118506	2327.6	106.6
0	118507	2327.6	105.6
0	118508	2327.6	104.6
0	118509	2327.6	103.6
0	118510	2327.6	102.6
0	118511	2327.6	101.6
0	118512	2327.6	100.6
0	118513	2327.6	99.6
0	118514	2327.6	98.6
0	118515	2327.6	97.6
0	118516	2327.6	96.6
0	118517	2327.6	95.6
0	118518	2327.6	94.6
0	118519	2327.6	93.6
0	118520	2327.6	92.6
0	118521	2327.6	91.6
0	118522	2327.6	90.6
0	118523	2327.6	89.6
0	118524	2327.6	88.6
0	118525	2327.6	87.6
0	118526	2327.6	86.6
0	118527	2327.6	85.6
0	118528	2327.6	84.6
0	118529	2327.6	83.6
0	118530	2327.6	82.6
0	118531	2327.6	81.6
0	118532	2327.6	80.6
0	118533	2327.6	79.6
0	118534	2327.6	78.6
0	118535	2327.6	77.6
0	118536	2327.6	76.6
0	118537	2327.6	75.6
0	118538	2327.6	74.6
0	118539	2327.6	73.6
0	118540	2327.6	72.6
0	118541	2327.6	71.6
0	118542	2327.6	70.6
0	118543	2327.6	69.6
0	118544	2327.6	68.6
0	118545	2327.6	67.6
0	118546	2327.6	66.6
0	118547	2327.6	65.6
0	118548	2327.6	64.6
0	118549	2327.6	63.6
0	118550	2327.6	62.6
0	118551	2327.6	61.6
0	118552	2327.6	60.6
0	118553	2327.6	59.6
0	118554	2327.6	58.6
0	118555	2327.6	57.6
0	118556	2327.6	56.6
0	118557	2327.6	55.6
0	118558	2327.6	54.6
0	118559	2327.6	53.6
0	118560	2327.6	52.6
0	118561	2327.6	51.6
0	118562	2327.6	50.6
0	118563	2327.6	49.6
0	118564	2327.6	48.6
0	118565	2327.6	47.6
0	118566	2327.6	46.6
0	118567	2327.6	45.6
0	118568	2327.6	44.6
0	118569	2327.6	43.6
0	118570	2327.6	42.6
0	118571	2327.6	41.6
0	118572	2327.6	40.6
0	118573	2327.6	39.6
0	118574	2327.6	38.6
0	118575	2327.6	37.6
0	118576	2327.6	36.6
0	118577	2327.6	35.6
0	118578	2327.6	34.6
0	118579	2327.6	33.6
0	118580	2327.6	32.6
0	118581	2327.6	31.6
0	118582	2327.6	30.6
0	118583	2327.6	29.6
0	118584	2327.6	28.6
0	118585	2327.6	27.6
0	118586	2327.6	26.6
0	118587	2327.6	25.6
0	118588	2327.6	24.6
0	118589	2327.6	23.6
0	118590	2327.6	22.6
0	118591	2327.6	21.6
0	118592	2327.6	20.6
0	118593	2327.6	19.6
0	118594	2327.6	18.6
0	118595	2327.6	17.6
0	118596	2327.6	16.6
0	118597	2327.6	15.6
0	118598	2327.6	14.6
0	118599	2327.6	13.6
0	118600	2327.6	12.6
0	118601	2327.6	11.6
0	118602	2327.6	10.6
0	118603	2327.6	9.6
0	118604	2327.6	8.6
0	118605	2327.6	7.6
0	118606	2327.6	6.6
0	118607	2327.6	5.6
0	118608	2327.6	4.6
0	118609	2327.6	3.6
0	118610	2327.6	2.6
0	118611	2327.6	1.6
0	119523	2328.6	1.6
0	119921	2329.6	1.6
0	119975	2330.6	1.6
0	120031	2331.6	1.6
0	120089	2332.6	1.6
0	120144	2333.6	1.6
0	120199	2334.6	1.6
0	120254	2335.6	1.6
0	120309	2336.6	1.6
0	120364	2337.6	1.6
0	120419	2338.6	1.6
0	120479	2339.6	1.6
0	120536	2340.6	1.6
0	120593	2341.6	1.6
0	120650	2342.6	1.6
0	120707	2343.6	1.6
0	120764	2344.6	1.6
0	120821	2345.6	1.6
0	120878	2346.6	1.6
0	120929	2347.6	1.6
0	121742	2374.4	27.4
0	121743	2374.4	26.4
0	121744	2374.4	25.4
0	121745	2374.4	24.4
0	121746	2374.4	23.4
0	121747	2374.4	22.4
0	121748	2374.4	21.4
0	121749	2374.4	20.4
0	121750	2374.4	19.4
0	121751	2374.4	18.4
0	121752	2374.4	17.4
0	121753	2374.4	16.4
0	121754	2374.4	15.4
0	121755	2374.4	14.4
0	121756	2374.4	13.4
0	121757	2374.4	12.4
0	121758	2374.4	11.4
0	121759	2374.4	10.4
0	121760	2374.4	9.4
0	121761	2374.4	8.4
0	121762	2374.4	7.4
0	121763	2374.4	6.4
0	121764	2374.4	5.4
0	121765	2374.4	4.4
0	121766	2374.4	3.4
0	121767	2374.4	2.4
0	121779	2374.5	1.5
0	121813	2375.5	1.5
0	121901	2376.5	1.5
0	121937	2377.5	1.5
0	121973	2378.5	1.5
0	122009	2379.5	1.5
0	122045	2380.5	1.5
0	122081	2381.5	1.5
0	122117	2382.5	1.5
0	122153	2383.5	1.5
0	122189	2384.5	1.5
0	122225	2385.5	1.5
0	122259	2386.5	1.5
0	122473	2391.3	5.3
0	122474	2391.3	4.3
0	122475	2391.3	3.3
0	122476	2391.3	2.3
0	122490	2391.4	1.4
0	122545	2392.4	1.4
0	122703	2402.7	10.7
0	122704	2402.7	9.7
0	122705	2402.7	8.7
0	127123	2476.4	81.4
0	127124	2476.4	80.4
0	127125	2476.4	79.4
0	127126	2476.4	78.4
0	127127	2476.4	77.4
0	127128	2476.4	76.4
0	127129	2476.4	75.4
0	127130	2476.4	74.4
0	127131	2476.4	73.4
0	127132	2476.4	72.4
0	127133	2476.4	71.4
0	127134	2476.4	70.4
0	127135	2476.4	69.4
0	127136	2476.4	68.4
0	127137	2476.4	67.4
0	127138	2476.4	66.4
0	127139	2476.4	65.4
0	127140	2476.4	64.4
0	127141	2476.4	63.4
0	127142	2476.4	62.4
0	127143	2476.4	61.4
0	127144	2476.4	60.4
0	127145	2476.4	59.4
0	127146	2476.4	58.4
0	127147	2476.4	57.4
0	127148	2476.4	56.4
0	127149	2476.4	55.4
0	127150	2476.4	54.4
0	127151	2476.4	53.4
0	127152	2476.4	52.4
0	127153	2476.4	51.4
0	127154	2476.4	50.4
0	127155	2476.4	49.4
0	127156	2476.4	48.4
0	127157	2476.4	47.4
0	127158	2476.4	46.4
0	127159	2476.4	45.4
0	127160	2476.4	44.4
0	127161	2476.4	43.4
0	127162	2476.4	42.4
0	127163	2476.4	41.4
0	127164	2476.4	40.4
0	127165	2476.4	39.4
0	127166	2476.4	38.4
0	127167	2476.4	37.4
0	127168	2476.4	36.4
0	127169	2476.4	35.4
0	127170	2476.4	34.4
0	127171	2476.4	33.4
0	127172	2476.4	32.4
0	127173	2476.4	31.4
0	127174	2476.4	30.4
0	127175	2476.4	29.4
0	127176	2476.4	28.4
0	127177	2476.4	27.4
0	127178	2476.4	26.4
0	127179	2476.4	25.4
0	127180	2476.4	24.4
0	127181	2476.4	23.4
0	127182	2476.4	22.4
0	127183	2476.4	21.4
0	127184	2476.4	20.4
0	127185	2476.4	19.4
0	127186	2476.4	18.4
0	127187	2476.4	17.4
0	127188	2476.4	16.4
0	127189	2476.4	15.4
0	127190	2476.4	14.4
0	127191	2476.4	13.4
0	127192	2476.4	12.4
0	127193	2476.4	11.4
0	127194	2476.4	10.4
0	127195	2476.4	9.4
0	127196	2476.4	8.4
0	127197	2476.4	7.4
0	127198	2476.4	6.4
0	127199	2476.4	5.4
0	127200	2476.4	4.4
0	127201	2476.4	3.4
0	127202	2476.4	2.4
0	127203	2476.4	1.4
0	128072	2477.4	1.4
0	128309	2478.4	1.4
0	128387	2479.4	1.4
0	128463	2480.4	1.4
0	128536	2481.4	1.4
0	128609	2482.4	1.4
0	128682	2483.4	1.4
0	128755	2484.4	1.4
0	128828	2485.4	1.4
0	128898	2486.4	1.4
0	128954	2487.4	1.4
0	131677	2570.1	40.1
0	131678	2570.1	39.1
0	131679	2570.1	83.1
0	131680	2570.1	82.1
0	131681	2570.1	81.1
0	131682	2570.1	80.1
0	131683	2570.1	79.1
0	131684	2570.1	78.1
0	131685	2570.1	77.1
0	131686	2570.1	76.1
0	131687	2570.1	75.1
0	131688	2570.1	74.1
0	131689	2570.1	73.1
0	131690	2570.1	72.1
0	131691	2570.1	71.1
0	131692	2570.1	70.1
0	131693	2570.1	69.1
0	131694	2570.1	68.1
0	131695	2570.1	67.1
0	131696	2570.1	66.1
0	131697	2570.1	65.1
0	131698	2570.1	64.1
0	131699	2570.1	63.1
0	131700	2570.1	62.1
0	131701	2570.1	61.1
0	131702	2570.1	60.1
0	131703	2570.1	59.1
0	131704	2570.1	58.1
0	131705	2570.1	57.1
0	131706	2570.1	56.1
0	131707	2570.1	55.1
0	131708	2570.1	54.1
0	131709	2570.1	53.1
0	131710	2570.1	52.1
0	131711	2570.1	51.1
0	131712	2570.1	50.1
0	131713	2570.1	49.1
0	131714	2570.1	48.1
0	131715	2570.1	47.1
0	131716	2570.1	46.1
0	131717	2570.1	45.1
0	131718	2570.1	44.1
0	131719	2570.1	43.1
0	131720	2570.1	42.1
0	131721	2570.1	41.1
0	131722	2570.1	38.1
0	131723	2570.1	37.1
0	132537	2574.2	40.2
0	132538	2574.2	39.2
0	132539	2574.2	38.2
0	132540	2574.2	37.2
0	132541	2574.2	36.2
0	132542	2574.2	35.2
0	132543	2574.2	34.2
0	132544	2574.2	33.2
0	132545	2574.2	32.2
0	132546	2574.2	31.2
0	132547	2574.2	30.2
0	132548	2574.2	29.2
0	132549	2574.2	28.2
0	132550	2574.2	27.2
0	132551	2574.2	26.2
0	132552	2574.2	25.2
0	132553	2574.2	24.2
0	132554	2574.2	23.2
0	132555	2574.2	22.2
0	132556	2574.2	21.2
0	132557	2574.2	20.2
0	132558	2574.2	19.2
0	132559	2574.2	18.2
0	132560	2574.2	17.2
0	132561	2574.2	16.2
0	132562	2574.2	15.2
0	132563	2574.2	14.2
0	132564	2574.2	13.2
0	132565	2574.2	12.2
0	132566	2574.2	11.2
0	132567	2574.2	10.2
0	132568	2574.2	9.2
0	132569	2574.2	8.2
0	132570	2574.2	7.2
0	132571	2574.2	6.2
0	132572	2574.2	5.2
0	132573	2574.2	4.2
0	132574	2574.2	3.2
0	132575	2574.2	2.2
0	132586	2574.3	1.3
0	132943	2575.3	1.3
0	133063	2576.3	1.3
0	133103	2577.3	1.3
0	133141	2578.3	1.3
0	133179	2579.3	1.3
0	133217	2580.3	1.3
0	133255	2581.3	1.3
0	133293	2582.3	1.3
0	133331	2583.3	1.3
0	133369	2584.3	1.3
0	133407	2585.3	1.3
0	133445	2586.3	1.3
0	133481	2587.3	1.3
0	133516	2588.3	1.3
0	133551	2589.3	1.3
0	133586	2590.3	1.3
0	133621	2591.3	1.3
0	133656	2592.3	1.3
0	133691	2593.3	1.3
0	133726	2594.3	1.3
0	133764	2595.3	1.3
0	133800	2596.3	1.3
0	133836	2597.3	1.3
0	133869	2598.3	1.3
0	134968	2617.4	19.4
0	134969	2617.4	18.4
0	134970	2617.4	17.4
0	134971	2617.4	16.4
0	134972	2617.4	15.4
0	134973	2617.4	14.4
0	134974	2617.4	13.4
0	134975	2617.4	12.4
0	134976	2617.4	11.4
0	134977	2617.4	10.4
0	134978	2617.4	9.4
0	134979	2617.4	8.4
0	134980	2617.4	7.4
0	134981	2617.4	6.4
0	134982	2617.4	5.4
0	134983	2617.4	4.4
0	134984	2617.4	3.4
0	134985	2617.4	2.4
0	135087	2617.5	1.5
0	135130	2618.5	1.5
0	135208	2619.5	1.5
0	135250	2620.5	1.5
0	135292	2621.5	1.5
0	135336	2622.5	1.5
0	135379	2623.5	1.5
0	135422	2624.5	1.5
0	135465	2625.5	1.5
0	135508	2626.5	1.5
0	135551	2627.5	1.5
0	135594	2628.5	1.5
0	135637	2629.5	1.5
0	135681	2630.5	1.5
0	135770	2631.5	1.5
0	135858	2632.5	1.5
0	135905	2633.5	1.5
0	136293	2634.5	1.5
0	136897	2635.2	102.2
0	136918	2635.5	1.5
0	137186	2636.5	1.5
0	137234	2637.5	1.5
0	137282	2638.5	1.5
0	137328	2639.5	1.5
0	137374	2640.5	1.5
0	137423	2641.5	1.5
0	137470	2642.5	1.5
0	137517	2643.5	1.5
0	137568	2644.3	1.3
0	137616	2645.3	1.3
0	137662	2646.3	1.3
0	137708	2647.3	1.3
0	137754	2648.3	1.3
0	137800	2649.3	1.3
0	137846	2650.3	1.3
0	137892	2651.3	1.3
0	137938	2652.3	1.3
0	137984	2653.3	1.3
0	138030	2654.3	1.3
0	138076	2655.3	1.3
0	138124	2656.3	1.3
0	138170	2657.3	1.3
0	138216	2658.3	1.3
0	138262	2659.3	1.3
0	138308	2660.3	1.3
0	138353	2661.3	1.3
0	138398	2662.3	1.3
0	138443	2663.3	1.3
0	138489	2664.3	1.3
0	138533	2665.3	1.3
0	138577	2666.3	1.3
0	138621	2667.3	1.3
0	138665	2668.3	1.3
0	138709	2669.3	1.3
0	138800	2670.3	1.3
0	138844	2671.3	1.3
0	138888	2672.3	1.3
0	138977	2673.3	1.3
0	139063	2674.3	1.3
0	139110	2675.3	1.3
0	139157	2676.3	1.3
0	139205	2677.3	1.3
0	139251	2678.3	1.3
0	139297	2679.3	1.3
0	139343	2680.3	1.3
0	139389	2681.3	1.3
0	139435	2682.3	1.3
0	139481	2683.3	1.3
0	139528	2684.3	1.3
0	139573	2685.3	1.3
0	139612	2686.3	1.3
0	141639	2751.4	64.4
0	141640	2751.4	63.4
0	141641	2751.4	62.4
0	141642	2751.4	61.4
0	141643	2751.4	60.4
0	141644	2751.4	59.4
0	141645	2751.4	58.4
0	141646	2751.4	57.4
0	141647	2751.4	56.4
0	141648	2751.4	55.4
0	141649	2751.4	54.4
0	141650	2751.4	53.4
0	141651	2751.4	52.4
0	141652	2751.4	51.4
0	141653	2751.4	50.4
0	141654	2751.4	49.4
0	141655	2751.4	48.4
0	141656	2751.4	47.4
0	141657	2751.4	46.4
0	141658	2751.4	45.4
0	141659	2751.4	44.4
0	141660	2751.4	43.4
0	141661	2751.4	42.4
0	141662	2751.4	41.4
0	141663	2751.4	40.4
0	141664	2751.4	39.4
0	141665	2751.4	38.4
0	141666	2751.4	37.4
0	141667	2751.4	36.4
0	141668	2751.4	35.4
0	141669	2751.4	34.4
0	141670	2751.4	33.4
0	141671	2751.4	32.4
0	141672	2751.4	31.4
0	141673	2751.4	30.4
0	141674	2751.4	29.4
0	141675	2751.4	28.4
0	141676	2751.4	27.4
0	141677	2751.4	26.4
0	141678	2751.4	25.4
0	141679	2751.4	24.4
0	141680	2751.4	23.4
0	141681	2751.4	22.4
0	141682	2751.4	21.4
0	141683	2751.4	20.4
0	141684	2751.4	19.4
0	141685	2751.4	18.4
0	141686	2751.4	17.4
0	141687	2751.4	16.4
0	141688	2751.4	15.4
0	141689	2751.4	14.4
0	141690	2751.4	13.4
0	141691	2751.4	12.4
0	141692	2751.4	11.4
0	141693	2751.4	10.4
0	141694	2751.4	9.4
0	141695	2751.4	8.4
0	141696	2751.4	7.4
0	141697	2751.4	6.4
0	141698	2751.4	5.4
0	141699	2751.4	4.4
0	141700	2751.4	3.4
0	141701	2751.4	2.4
0	142028	2751.5	1.5
0	142196	2752.5	1.5
0	142224	2753.5	1.5
0	142766	2759.5	6.5
0	142767	2759.5	5.5
0	142768	2759.5	4.5
0	142769	2759.5	3.5
0	142770	2759.5	2.5
0	142771	2759.5	1.5
0	142772	2759.5	73.5
0	142854	2760.5	1.5
0	142928	2761.5	1.5
0	142972	2762.5	1.5
0	143016	2763.5	1.5
0	143060	2764.5	1.5
0	143104	2765.5	1.5
0	143148	2766.5	1.5
0	143192	2767.5	1.5
0	143236	2768.5	1.5
0	143280	2769.5	1.5
0	143324	2770.5	1.5
0	143368	2771.5	1.5
0	143414	2772.5	1.5
0	143459	2773.5	1.5
0	143504	2774.5	1.5
0	143549	2775.5	1.5
0	143594	2776.5	1.5
0	143639	2777.5	1.5
0	143684	2778.5	1.5
0	143729	2779.5	1.5
0	143778	2780.5	1.5
0	143824	2781.5	1.5
0	143870	2782.5	1.5
0	143916	2783.5	1.5
0	143962	2784.5	1.5
0	144008	2785.5	1.5
0	144053	2786.5	1.5
0	144096	2787.5	1.5
0	144139	2788.5	1.5
0	144182	2789.5	1.5
0	144225	2790.5	1.5
0	144268	2791.5	1.5
0	144317	2792.5	1.5
0	144363	2793.5	1.5
0	144397	2794.5	1.5
0	144435	2795.5	1.5
0	144471	2796.5	1.5
0	144507	2797.5	1.5
0	144547	2798.5	1.5
0	144586	2799.5	1.5
0	144623	2800.5	1.5
0	144660	2801.5	1.5
0	144697	2802.5	1.5
0	144734	2803.5	1.5
0	144771	2804.5	1.5
0	144808	2805.5	1.5
0	145120	2806.5	1.5
0	147517	2887.1	80.1
0	147518	2887.1	79.1
0	147519	2887.1	78.1
0	147520	2887.1	77.1
0	147521	2887.1	76.1
0	147522	2887.1	75.1
0	147523	2887.1	74.1
0	147524	2887.1	73.1
0	147525	2887.1	72.1
0	147526	2887.1	71.1
0	147527	2887.1	70.1
0	147528	2887.1	69.1
0	147529	2887.1	68.1
0	147530	2887.1	67.1
0	147531	2887.1	66.1
0	147532	2887.1	65.1
0	147533	2887.1	64.1
0	147534	2887.1	63.1
0	147535	2887.1	62.1
0	147536	2887.1	61.1
0	147537	2887.1	60.1
0	147538	2887.1	81.1
0	147539	2887.1	59.1
0	147540	2887.1	58.1
0	147541	2887.1	57.1
0	147542	2887.1	56.1
0	147543	2887.1	55.1
0	147544	2887.1	54.1
0	147545	2887.1	53.1
0	147546	2887.1	52.1
0	147547	2887.1	51.1
0	147548	2887.1	50.1
0	147549	2887.1	49.1
0	147550	2887.1	48.1
0	147551	2887.1	47.1
0	147552	2887.1	46.1
0	147553	2887.1	45.1
0	147554	2887.1	44.1
0	147555	2887.1	43.1
0	147556	2887.1	42.1
0	147557	2887.1	41.1
0	147558	2887.1	40.1
0	147559	2887.1	39.1
0	147560	2887.1	38.1
0	147561	2887.1	37.1
0	147562	2887.1	36.1
0	147563	2887.1	35.1
0	147564	2887.1	34.1
0	147565	2887.1	33.1
0	147566	2887.1	32.1
0	147567	2887.1	31.1
0	147568	2887.1	30.1
0	147569	2887.1	29.1
0	147570	2887.1	28.1
0	147571	2887.1	27.1
0	147572	2887.1	26.1
0	147573	2887.1	25.1
0	147574	2887.1	24.1
0	147575	2887.1	23.1
0	147576	2887.1	22.1
0	147577	2887.1	21.1
0	147578	2887.1	20.1
0	147579	2887.1	19.1
0	147580	2887.1	18.1
0	148813	2895.6	25.6
0	148814	2895.6	24.6
0	148815	2895.6	23.6
0	148816	2895.6	22.6
0	148817	2895.6	21.6
0	148818	2895.6	20.6
0	148819	2895.6	19.6
0	148820	2895.6	18.6
0	148821	2895.6	17.6
0	148822	2895.6	16.6
0	148823	2895.6	15.6
0	148824	2895.6	14.6
0	148825	2895.6	13.6
0	148826	2895.6	12.6
0	148827	2895.6	11.6
0	148828	2895.6	10.6
0	148829	2895.6	9.6
0	148830	2895.6	8.6
0	148831	2895.6	7.6
0	148832	2895.6	6.6
0	148833	2895.6	5.6
0	148834	2895.6	4.6
0	148835	2895.6	3.6
0	148836	2895.6	2.6
0	148837	2895.6	1.6
0	149013	2896.6	1.6
0	149119	2897.6	1.6
0	149182	2898.6	1.6
0	149242	2899.6	1.6
0	149302	2900.6	1.6
0	149362	2901.6	1.6
0	149422	2902.6	1.6
0	149482	2903.6	1.6
0	149542	2904.6	1.6
0	149602	2905.6	1.6
0	149662	2906.6	1.6
0	149720	2907.6	1.6
0	149766	2908.6	1.6
0	149810	2909.5	1.5
0	149854	2910.5	1.5
0	149898	2911.5	1.5
0	149942	2912.5	1.5
0	149989	2913.5	1.5
0	150028	2914.5	1.5
0	150110	2916.5	2.5
0	150111	2916.5	1.5
0	150157	2917.5	1.5
0	150204	2918.5	1.5
0	150249	2919.5	1.5
0	150292	2920.5	1.5
0	150335	2921.5	1.5
0	150378	2922.5	1.5
0	150421	2923.5	1.5
0	150458	2924.5	1.5
0	151804	2994.4	70.4
0	151805	2994.4	69.4
0	151806	2994.4	68.4
0	151807	2994.4	67.4
0	151808	2994.4	66.4
0	151809	2994.4	65.4
0	151810	2994.4	64.4
0	151811	2994.4	63.4
0	151812	2994.4	62.4
0	151813	2994.4	61.4
0	151814	2994.4	60.4
0	151815	2994.4	59.4
0	151816	2994.4	58.4
0	151817	2994.4	57.4
0	151818	2994.4	56.4
0	151819	2994.4	55.4
0	151820	2994.4	54.4
0	151821	2994.4	53.4
0	151822	2994.4	52.4
0	151823	2994.4	51.4
0	151824	2994.4	50.4
0	151825	2994.4	49.4
0	151826	2994.4	48.4
0	151827	2994.4	47.4
0	151828	2994.4	46.4
0	151829	2994.4	45.4
0	151830	2994.4	44.4
0	151831	2994.4	43.4
0	151832	2994.4	42.4
0	151833	2994.4	41.4
0	152635	3029.7	75.7
0	152636	3029.7	74.7
0	152637	3029.7	73.7
0	152638	3029.7	72.7
0	152639	3029.7	71.7
0	152640	3029.7	70.7
0	152641	3029.7	69.7
0	152642	3029.7	68.7
0	152643	3029.7	67.7
0	152644	3029.7	66.7
0	152645	3029.7	65.7
0	156339	3064.4	99.4
0	156340	3064.4	98.4
0	156341	3064.4	97.4
0	156342	3064.4	96.4
0	156343	3064.4	95.4
0	156344	3064.4	94.4
0	156345	3064.4	93.4
0	156346	3064.4	92.4
0	156347	3064.4	91.4
0	156348	3064.4	90.4
0	156349	3064.4	89.4
0	156350	3064.4	88.4
0	156351	3064.4	87.4
0	156352	3064.4	86.4
0	156353	3064.4	85.4
0	156354	3064.4	84.4
0	156355	3064.4	83.4
0	156356	3064.4	82.4
0	156357	3064.4	81.4
0	156358	3064.4	80.4
0	156359	3064.4	79.4
0	156360	3064.4	78.4
0	156361	3064.4	77.4
0	156362	3064.4	76.4
0	156363	3064.4	75.4
0	156364	3064.4	74.4
0	156365	3064.4	73.4
0	156366	3064.4	72.4
0	156367	3064.4	71.4
0	156368	3064.4	70.4
0	156369	3064.4	69.4
0	156370	3064.4	68.4
0	156371	3064.4	67.4
0	156372	3064.4	66.4
0	156373	3064.4	65.4
0	156374	3064.4	64.4
0	156375	3064.4	63.4
0	156376	3064.4	62.4
0	156377	3064.4	61.4
0	156378	3064.4	60.4
0	156379	3064.4	59.4
0	156380	3064.4	58.4
0	156381	3064.4	57.4
0	156382	3064.4	56.4
0	156383	3064.4	55.4
0	156384	3064.4	54.4
0	156385	3064.4	53.4
0	156386	3064.4	52.4
0	156387	3064.4	51.4
0	156388	3064.4	50.4
0	156389	3064.4	49.4
0	156390	3064.4	48.4
0	156391	3064.4	47.4
0	156392	3064.4	46.4
0	156393	3064.4	45.4
0	156394	3064.4	44.4
0	156395	3064.4	43.4
0	156396	3064.4	42.4
0	156397	3064.4	41.4
0	156398	3064.4	40.4
0	156399	3064.4	39.4
0	156400	3064.4	38.4
0	156401	3064.4	37.4
0	156402	3064.4	36.4
0	156403	3064.4	35.4
0	156404	3064.4	34.4
0	156405	3064.4	33.4
0	156406	3064.4	32.4
0	156407	3064.4	31.4
0	156408	3064.4	30.4
0	156409	3064.4	29.4
0	156410	3064.4	28.4
0	156411	3064.4	27.4
0	156412	3064.4	26.4
0	156413	3064.4	25.4
0	156414	3064.4	24.4
0	156415	3064.4	23.4
0	156416	3064.4	22.4
0	156417	3064.4	21.4
0	156418	3064.4	20.4
0	156419	3064.4	19.4
0	156420	3064.4	18.4
0	156421	3064.4	17.4
0	156422	3064.4	16.4
0	156423	3064.4	15.4
0	156424	3064.4	14.4
0	156425	3064.4	13.4
0	156426	3064.4	12.4
0	156427	3064.4	11.4
0	156428	3064.4	10.4
0	156429	3064.4	9.4
0	156430	3064.4	8.4
0	156431	3064.4	7.4
0	156432	3064.4	6.4
0	156433	3064.4	5.4
0	156434	3064.4	4.4
0	156435	3064.4	3.4
0	156436	3064.4	2.4
0	156437	3064.4	1.4
0	157180	3065.4	1.4
0	157241	3066.4	1.4
0	157299	3067.4	1.4
0	157357	3068.4	1.4
0	157415	3069.4	1.4
0	157473	3070.4	1.4
0	157531	3071.4	1.4
0	157589	3072.4	1.4
0	157647	3073.4	1.4
0	157705	3074.4	1.4
0	157763	3075.4	1.4
0	157821	3076.4	1.4
0	157879	3077.4	1.4
0	157937	3078.4	1.4
0	157996	3079.4	1.4
0	158054	3080.4	1.4
0	158104	3081.4	1.4
0	158441	3089.2	8.2
0	158442	3089.2	7.2
0	158443	3089.2	6.2
0	158444	3089.2	5.2
0	158445	3089.2	4.2
0	158446	3089.2	3.2
0	158447	3089.2	2.2
0	158511	3089.4	1.4
0	158582	3090.4	1.4
0	158654	3091.5	1.5
0	158726	3092.5	1.5
0	158824	3093.5	1.5
0	158922	3094.5	1.5
0	158988	3095.5	1.5
0	159054	3096.5	1.5
0	159120	3097.5	1.5
0	159190	3098.5	1.5
0	159260	3099.5	1.5
0	159333	3100.5	1.5
0	159404	3101.5	1.5
0	159478	3102.5	1.5
0	159548	3103.5	1.5
0	159610	3104.4	1.4
0	159676	3105.4	1.4
0	159744	3106.4	1.4
0	159812	3107.4	1.4
0	159880	3108.4	1.4
0	159948	3109.4	1.4
0	160016	3110.4	1.4
0	160084	3111.4	1.4
0	160154	3112.4	1.4
0	160223	3113.4	1.4
0	160292	3114.4	1.4
0	160361	3115.4	1.4
0	160439	3116.4	1.4
0	160506	3117.4	1.4
0	160573	3118.4	1.4
0	160640	3119.4	1.4
0	160707	3120.4	1.4
0	160774	3121.4	1.4
0	160841	3122.4	1.4
0	160908	3123.4	1.4
0	160975	3124.4	1.4
0	161042	3125.4	1.4
0	161109	3126.4	1.4
0	161187	3127.4	1.4
0	161265	3128.4	1.4
0	161332	3129.4	1.4
0	161410	3130.4	1.4
0	161477	3131.4	1.4
0	161519	3132.4	1.4
0	166595	3261.6	129.6
0	166596	3261.6	128.6
0	166597	3261.6	127.6
0	166598	3261.6	126.6
0	166599	3261.6	125.6
0	166600	3261.6	124.6
0	166601	3261.6	123.6
0	166602	3261.6	122.6
0	166603	3261.6	121.6
0	166604	3261.6	120.6
0	166605	3261.6	119.6
0	166606	3261.6	118.6
0	166607	3261.6	117.6
0	166608	3261.6	116.6
0	166609	3261.6	115.6
0	166610	3261.6	114.6
0	166611	3261.6	113.6
0	166612	3261.6	112.6
0	166613	3261.6	111.6
0	166614	3261.6	110.6
0	166615	3261.6	109.6
0	166616	3261.6	108.6
0	166617	3261.6	107.6
0	166618	3261.6	106.6
0	166619	3261.6	105.6
0	166620	3261.6	104.6
0	166621	3261.6	103.6
0	166622	3261.6	102.6
0	166623	3261.6	101.6
0	166624	3261.6	100.6
0	166625	3261.6	99.6
0	166626	3261.6	98.6
0	166627	3261.6	97.6
0	166628	3261.6	96.6
0	166629	3261.6	95.6
0	166630	3261.6	94.6
0	166631	3261.6	93.6
0	166632	3261.6	92.6
0	166633	3261.6	91.6
0	166634	3261.6	90.6
0	166635	3261.6	89.6
0	166636	3261.6	88.6
0	166637	3261.6	87.6
0	166638	3261.6	86.6
0	166639	3261.6	85.6
0	166640	3261.6	84.6
0	166641	3261.6	83.6
0	166642	3261.6	82.6
0	166643	3261.6	81.6
0	166644	3261.6	80.6
0	166645	3261.6	79.6
0	166646	3261.6	78.6
0	166647	3261.6	77.6
0	166648	3261.6	76.6
0	166649	3261.6	75.6
0	166650	3261.6	74.6
0	166651	3261.6	73.6
0	166652	3261.6	72.6
0	166653	3261.6	71.6
0	166654	3261.6	70.6
0	166655	3261.6	69.6
0	166656	3261.6	68.6
0	166657	3261.6	67.6
0	166658	3261.6	66.6
0	166659	3261.6	65.6
0	166660	3261.6	64.6
0	166661	3261.6	63.6
0	166662	3261.6	62.6
0	166663	3261.6	61.6
0	166664	3261.6	60.6
0	166665	3261.6	59.6
0	166666	3261.6	58.6
0	166667	3261.6	57.6
0	166668	3261.6	56.6
0	166669	3261.6	55.6
0	166670	3261.6	54.6
0	166671	3261.6	53.6
0	166672	3261.6	52.6
0	166673	3261.6	51.6
0	166674	3261.6	50.6
0	166675	3261.6	49.6
0	166676	3261.6	48.6
0	166677	3261.6	47.6
0	166678	3261.6	46.6
0	166679	3261.6	45.6
0	166680	3261.6	44.6
0	166681	3261.6	43.6
0	166682	3261.6	42.6
0	166683	3261.6	41.6
0	166684	3261.6	40.6
0	166685	3261.6	39.6
0	166686	3261.6	38.6
0	166687	3261.6	37.6
0	166688	3261.6	36.6
0	166689	3261.6	35.6
0	166690	3261.6	34.6
0	166691	3261.6	33.6
0	166692	3261.6	32.6
0	166693	3261.6	31.6
0	166694	3261.6	30.6
0	166695	3261.6	29.6
0	166696	3261.6	28.6
0	166697	3261.6	27.6
0	166698	3261.6	26.6
0	166699	3261.6	25.6
0	166700	3261.6	24.6
0	166701	3261.6	23.6
0	166702	3261.6	22.6
0	166703	3261.6	21.6
0	166704	3261.6	20.6
0	166705	3261.6	19.6
0	166706	3261.6	18.6
0	166707	3261.6	17.6
0	166708	3261.6	16.6
0	166709	3261.6	15.6
0	166710	3261.6	14.6
0	166711	3261.6	13.6
0	166712	3261.6	12.6
0	166713	3261.6	11.6
0	166714	3261.6	10.6
0	166715	3261.6	9.6
0	166716	3261.6	8.6
0	166717	3261.6	7.6
0	166718	3261.6	6.6
0	166719	3261.6	5.6
0	166720	3261.6	4.6
0	166721	3261.6	3.6
0	166722	3261.6	2.6
0	166723	3261.6	1.6
0	168990	3270.3	8.3
0	168991	3270.3	7.3
0	168992	3270.3	6.3
0	168993	3270.3	5.3
0	168994	3270.3	4.3
0	168995	3270.3	3.3
0	168996	3270.3	2.3
0	169045	3270.4	1.4
0	169111	3271.4	1.4
0	169163	3272.4	1.4
0	169215	3273.4	1.4
0	169267	3274.4	1.4
0	169319	3275.4	1.4
0	169371	3276.4	1.4
0	169423	3277.4	1.4
0	169475	3278.4	1.4
0	169532	3279.4	1.4
0	169586	3280.4	1.4
0	169640	3281.4	1.4
0	169699	3282.4	1.4
0	169760	3283.4	1.4
0	169817	3284.4	1.4
0	169874	3285.4	1.4
0	169931	3286.4	1.4
0	169993	3287.4	1.4
0	170052	3288.4	1.4
0	170113	3289.4	1.4
0	170173	3290.4	1.4
0	170233	3291.4	1.4
0	170293	3292.4	1.4
0	170359	3293.4	1.4
0	170421	3294.4	1.4
0	170483	3295.4	1.4
0	170545	3296.4	1.4
0	170607	3297.4	1.4
0	170669	3298.4	1.4
0	170731	3299.4	1.4
0	170793	3300.4	1.4
0	170843	3301.3	1.3
0	170890	3302.3	1.3
0	170943	3303.3	1.3
0	170992	3304.3	1.3
0	171041	3305.3	1.3
0	171090	3306.3	1.3
0	171144	3307.3	1.3
0	171194	3308.3	1.3
0	171245	3309.3	1.3
0	171294	3310.3	1.3
0	171343	3311.3	1.3
0	171401	3312.3	1.3
0	171458	3313.3	1.3
0	171512	3314.3	1.3
0	171566	3315.3	1.3
0	171621	3316.3	1.3
0	171674	3317.3	1.3
0	171727	3318.3	1.3
0	171780	3319.3	1.3
0	171831	3320.3	1.3
0	171882	3321.3	1.3
0	171933	3322.3	1.3
0	171984	3323.3	1.3
0	172035	3324.3	1.3
0	172091	3325.3	1.3
0	172144	3326.3	1.3
0	172197	3327.3	1.3
0	172250	3328.3	1.3
0	172303	3329.3	1.3
0	172357	3330.3	1.3
0	172402	3331.3	1.3
0	172491	3333.3	2.3
0	172492	3333.3	1.3
0	172551	3334.3	1.3
0	172599	3335.3	1.3
0	172647	3336.3	1.3
0	172695	3337.3	1.3
0	172743	3338.3	1.3
0	172791	3339.3	1.3
0	172839	3340.3	1.3
0	172879	3341.3	1.3
0	172959	3343.3	2.3
0	172960	3343.3	1.3
0	173013	3344.3	1.3
0	173062	3345.3	1.3
0	173107	3346.3	1.3
0	173151	3347.3	1.3
0	173195	3348.3	1.3
0	173239	3349.3	1.3
0	173283	3350.3	1.3
0	173327	3351.3	1.3
0	173371	3352.3	1.3
0	173417	3353.3	1.3
0	173461	3354.3	1.3
0	173505	3355.3	1.3
0	173549	3356.3	1.3
0	173593	3357.3	1.3
0	173637	3358.3	1.3
0	173681	3359.3	1.3
0	174112	3360.3	1.3
0	174158	3361.3	1.3
0	174332	3362.3	1.3
0	174381	3363.3	1.3
0	174420	3364.3	1.3


