version 2
run General-0-20250114-11:45:35-67280
attr configname General
attr datetime 20250114-11:45:35
attr experiment General
attr inifile shaw.ini
attr iterationvars ""
attr iterationvarsf ""
attr measurement ""
attr network src.dtnsim
attr processid 67280
attr repetition 0
attr replication #0
attr resultdir results
attr runnumber 0
attr seedset 0
param dtnsim.central.contactsFile "\"contactPlan/Contacts.txt\""
param dtnsim.central.contactsFile_A "\"contactPlan/Contacts_A.txt\""
param dtnsim.central.contactsFile_B "\"contactPlan/Contacts_B.txt\""
param dtnsim.central.contactIdsToDelete_from_celestialA "\"2 4 6 10 28 43 45 47 52 54 56 60 63 67 72 76 86 87 96 97 99 100 102 104 106 121 123 125 126 127 130 139 143 150 154 160 162 168 169 179 181 184 189 192 195 202 203 204 205 208 209 216 217 227 230 236 239 240 243 244 245 246 252 254 255 260 263 267 269 276 289 293 296 299 312 313 317 322 330 333 339 340 342 343 346 350 351 359 362 371 372 373 374 379 382 395 397 402 411 412 413 420 426 427 434 445 447 459 461 462 468 472 479 487 488 497 503 510 520 525 526 537 538 542 543 553 559 568 570 571 575 584 585 587 589 595 597 601 602 612 614 629 633 637 639 646 651 652 654 662 665 666 671 678 686 688 689 690 703 707 715 719 723 726 727 728 729 731 736 747 749 753 754 755 760 762 768 769 771 781 788 801 805 809 811 814 816 817 818 819 820 821 824 842 844 847 851 854 855 858 860 865 876 877 881 882 893 895 896 901 919 922 925 934 939 940 945 946 955 956 962 978 979 985 987 988 991 995\""
param dtnsim.central.contactIdsToDelete_from_celestialB "\"15 17 22 26 50 61 77 85 89 95 134 158 167 172 177 212 213 231 264 275 307 310 326 329 348 354 356 369 380 398 416 437 440 456 494 505 521 522 534 557 576 598 617 627 630 632 638 659 674 683 705 730 744 745 774 783 826 828 830 837 884 886 909 914 928 932 950 951 959 968 990 998\""
param dtnsim.central.celestialA_nodes "\"1 2 3\""
param dtnsim.central.celestialB_nodes "\"4 5 6\""
param dtnsim.central.locallyfaultsAware true
param dtnsim.central.mode_two_celestial true
param dtnsim.nodesNumber 6
param dtnsim.node[1].icon "\"receiverdish\""
param dtnsim.node[2..5].icon "\"satellite\""
param dtnsim.node[6].icon "\"receiverdish\""
param dtnsim.node[*].dtn.routing "\"cgrModel350\""
param dtnsim.node[*].dtn.routingType "\"routeListType:allPaths-firstEnding,volumeAware:allContacts,extensionBlock:on,contactPlan:global\""
param dtnsim.node[1].app.enable true
param dtnsim.node[*].app.custodyTransfer true
param dtnsim.node[1].app.bundlesNumber "\"1000\""
param dtnsim.node[1].app.start "\"0\""
param dtnsim.node[1].app.destinationEid "\"6\""
param dtnsim.node[1].app.size "\"1500\""
param dtnsim.node[1].app.interval 1

vector 0 dtnsim.node[6].app appBundleReceivedDelayvec:vector ETV
attr interpolationmode none
attr source appBundleReceivedDelay
attr title "appBundleReceivedDelayvec, vector"
0	290	20	20
0	301	20	19
0	308	20	18
0	314	20	17
0	320	20	16
0	326	20	15
0	332	20	14
0	338	20	13
0	344	20	12
0	350	20	11
0	356	20	10
0	362	20	9
0	368	20	8
0	374	20	7
0	380	20	6
0	386	20	5
0	392	20	4
0	398	20	3
0	404	20	2
0	410	20	1
0	426	21	1
0	453	22	1
0	475	23	1
0	498	24	1
0	521	25	1
0	545	26	1
0	570	27	1
0	597	28	1
0	620	29	1
0	644	30	1
0	666	31	1
0	689	32	1
0	713	33	1
0	735	34	1
0	759	35	1
0	781	36	1
0	810	37	1
0	830	38	1
0	853	39	1
0	875	40	1
0	898	41	1
0	921	42	1
0	943	43	1
0	991	45	1
0	1014	46	1
0	1045	47	1
0	1067	48	5
0	1080	48	1
0	1109	49	1
0	1138	50	1
0	1168	51	1
0	1196	52	1
0	1226	53	1
0	1256	54	1
0	1288	55	1
0	1317	56	1
0	1345	57	1
0	1375	58	1
0	1410	59	1
0	1441	60	1
0	1473	61	1
0	1505	62	1
0	1535	63	1
0	1566	64	1
0	1592	65	1
0	1618	66	1
0	1645	67	1
0	1707	69	1
0	1725	69	2
0	1748	70	1
0	1780	71	1
0	1814	72	1
0	1847	73	1
0	1883	74	1
0	1921	75	1
0	1966	76	1
0	2009	77	1
0	2048	78	1
0	2076	79	1
0	2108	80	1
0	2137	81	1
0	2168	82	1
0	2197	83	1
0	2227	84	1
0	2258	85	1
0	2289	86	1
0	2320	87	1
0	2351	88	1
0	2388	89	1
0	2418	90	1
0	2453	91	1
0	2485	92	1
0	2518	93	1
0	3614	122	115
0	3636	122	15
0	3646	122	114
0	3653	122	14
0	3659	122	113
0	3665	122	13
0	3671	122	112
0	3677	122	12
0	3683	122	111
0	3689	122	11
0	3695	122	110
0	3701	122	10
0	3707	122	109
0	3713	122	9
0	3719	122	108
0	3725	122	8
0	3731	122	107
0	3737	122	7
0	3743	122	106
0	3749	122	6
0	3755	122	105
0	3761	122	5
0	3767	122	104
0	3773	122	4
0	3779	122	122
0	3785	122	121
0	3791	122	120
0	3797	122	119
0	3803	122	118
0	3809	122	117
0	3815	122	116
0	3821	122	115
0	3827	122	114
0	3833	122	113
0	3839	122	112
0	3845	122	111
0	3851	122	110
0	3857	122	109
0	3863	122	108
0	3869	122	107
0	3875	122	106
0	3881	122	105
0	3887	122	104
0	3893	122	103
0	3899	122	122
0	3905	122	121
0	3911	122	103
0	3917	122	120
0	3923	122	3
0	3929	122	119
0	3935	122	118
0	3941	122	117
0	3947	122	116
0	3953	122	115
0	3959	122	114
0	3965	122	113
0	3971	122	112
0	3977	122	111
0	3983	122	110
0	3989	122	109
0	3995	122	108
0	4001	122	107
0	4007	122	106
0	4013	122	105
0	4019	122	104
0	4025	122	103
0	4031	122	102
0	4037	122	102
0	4043	122	102
0	4049	122	2
0	4055	122	101
0	4061	122	101
0	4067	122	101
0	4073	122	1
0	4101	123	101
0	4126	123	101
0	4141	123	101
0	4151	123	1
0	4179	124	101
0	4204	124	101
0	4219	124	101
0	4229	124	1
0	4257	125	101
0	4272	125	101
0	4286	125	101
0	4296	125	1
0	4327	126	101
0	4342	126	101
0	4352	126	101
0	4361	126	1
0	4391	127	101
0	4407	127	101
0	4417	127	101
0	4426	127	1
0	4457	128	101
0	4474	128	101
0	4484	128	101
0	4493	128	1
0	4522	129	101
0	4538	129	101
0	4548	129	101
0	4557	129	1
0	4586	130	101
0	4603	130	101
0	4613	130	101
0	4622	130	1
0	4652	131	101
0	4672	131	101
0	4682	131	101
0	4689	131	1
0	4714	132	101
0	4758	133	101
0	4801	134	101
0	4846	135	101
0	4856	135	42
0	4874	135	41
0	4885	135	40
0	4892	135	39
0	4898	135	38
0	4904	135	37
0	4910	135	36
0	4916	135	35
0	4922	135	34
0	4928	135	33
0	4934	135	135
0	4940	135	134
0	4946	135	133
0	4952	135	132
0	4958	135	32
0	4964	135	131
0	4970	135	31
0	4976	135	130
0	4982	135	30
0	4988	135	129
0	4994	135	29
0	5000	135	104
0	5006	135	4
0	5012	135	103
0	5018	135	3
0	5024	135	102
0	5030	135	2
0	5036	135	101
0	5042	135	1
0	5067	136	101
0	5076	136	101
0	5094	136	1
0	5125	137	101
0	5135	137	101
0	5152	137	1
0	5181	138	101
0	5199	138	101
0	5209	138	1
0	5233	139	101
0	5252	139	101
0	5262	139	1
0	5289	140	101
0	5308	140	101
0	5318	140	1
0	5342	141	101
0	5360	141	101
0	5370	141	1
0	5396	142	101
0	5414	142	101
0	5424	142	1
0	5449	143	101
0	5464	143	101
0	5474	143	1
0	5563	144	113
0	5579	144	112
0	5589	144	111
0	5596	144	110
0	5602	144	109
0	5608	144	108
0	5614	144	107
0	5620	144	106
0	5626	144	105
0	5632	144	104
0	5638	144	103
0	5644	144	102
0	5650	144	101
0	5656	144	101
0	5662	144	1
0	5686	145	101
0	5703	145	101
0	5713	145	101
0	5722	145	1
0	5747	146	101
0	5763	146	101
0	5773	146	101
0	5782	146	1
0	5808	147	101
0	5825	147	101
0	5835	147	101
0	5844	147	1
0	5865	148	105
0	5878	148	101
0	5894	148	101
0	5904	148	101
0	5913	148	1
0	5940	149	101
0	5956	149	101
0	5966	149	101
0	5975	149	1
0	6003	150	101
0	6020	150	101
0	6030	150	101
0	6039	150	1
0	6064	151	101
0	6080	151	101
0	6090	151	101
0	6099	151	1
0	6126	152	101
0	6140	152	101
0	6150	152	101
0	6159	152	1
0	6185	153	101
0	6199	153	101
0	6209	153	101
0	6218	153	1
0	6245	154	101
0	6259	154	101
0	6269	154	101
0	6278	154	1
0	6308	155	101
0	6326	155	101
0	6337	155	101
0	6346	155	1
0	6374	156	101
0	6390	156	101
0	6401	156	101
0	6410	156	1
0	6438	157	101
0	6455	157	101
0	6467	157	101
0	6476	157	1
0	6506	158	101
0	6526	158	101
0	6539	158	101
0	6548	158	1
0	6576	159	101
0	6595	159	101
0	6608	159	101
0	6617	159	1
0	6645	160	101
0	6663	160	101
0	6676	160	101
0	6685	160	1
0	6712	161	101
0	6730	161	101
0	6743	161	101
0	6752	161	1
0	6778	162	101
0	6796	162	101
0	6809	162	101
0	6818	162	1
0	6844	163	101
0	6862	163	101
0	6875	163	101
0	6884	163	1
0	6909	164	101
0	6927	164	101
0	6940	164	101
0	6949	164	1
0	6976	165	101
0	6993	165	101
0	7005	165	101
0	7014	165	1
0	7039	166	101
0	7086	167	101
0	7176	169	102
0	7431	175	110
0	7445	175	110
0	7457	175	10
0	7464	175	109
0	7470	175	109
0	7476	175	9
0	7482	175	108
0	7488	175	108
0	7494	175	8
0	7500	175	107
0	7506	175	108
0	7512	175	107
0	7518	175	107
0	7524	175	7
0	7530	175	106
0	7536	175	106
0	7542	175	106
0	7548	175	6
0	7554	175	105
0	7560	175	105
0	7566	175	105
0	7572	175	5
0	7578	175	104
0	7584	175	104
0	7590	175	104
0	7596	175	4
0	7602	175	103
0	7608	175	103
0	7614	175	103
0	7620	175	3
0	7626	175	102
0	7632	175	102
0	7638	175	102
0	7644	175	2
0	7650	175	101
0	7656	175	101
0	7662	175	101
0	7668	175	1
0	7695	176	101
0	7707	176	101
0	7722	176	101
0	7734	176	101
0	7741	176	1
0	7769	177	101
0	7780	177	101
0	7796	177	101
0	7808	177	101
0	7815	177	1
0	7843	178	101
0	7853	178	101
0	7874	178	101
0	7891	178	101
0	7899	178	1
0	7925	179	101
0	7938	179	101
0	7958	179	101
0	7976	179	1
0	8002	180	101
0	8014	180	101
0	8035	180	101
0	8052	180	1
0	8078	181	101
0	8090	181	101
0	8111	181	101
0	8128	181	1
0	8156	182	101
0	8170	182	101
0	8191	182	101
0	8209	182	1
0	8236	183	101
0	8247	183	101
0	8270	183	101
0	8287	183	1
0	8314	184	101
0	8326	184	101
0	8349	184	101
0	8367	184	1
0	8392	185	101
0	8404	185	101
0	8427	185	101
0	8445	185	1
0	8470	186	101
0	8482	186	101
0	8505	186	101
0	8523	186	1
0	8551	187	101
0	8576	187	101
0	8594	187	101
0	8605	187	1
0	8630	188	101
0	8654	188	101
0	8672	188	101
0	8682	188	1
0	8706	189	101
0	8730	189	101
0	8748	189	101
0	8758	189	1
0	8783	190	101
0	8808	190	101
0	8826	190	101
0	8836	190	1
0	8860	191	101
0	8885	191	101
0	8903	191	101
0	8913	191	1
0	8939	192	101
0	8966	192	101
0	8986	192	101
0	8996	192	1
0	9016	193	101
0	9029	193	101
0	9036	193	101
0	9042	193	1
0	9061	194	101
0	9082	195	101
0	9102	196	101
0	9134	197	101
0	9356	198	101
0	9383	198	105
0	9401	198	5
0	9409	198	104
0	9415	198	4
0	9421	198	103
0	9427	198	3
0	9433	198	102
0	9439	198	2
0	9445	198	101
0	9451	198	1
0	9479	199	101
0	9507	199	101
0	9524	199	1
0	9555	200	101
0	9581	200	101
0	9597	200	1
0	9625	201	101
0	9651	201	101
0	9667	201	1
0	9694	202	101
0	9715	202	101
0	9725	202	1
0	9759	203	101
0	9783	203	1
0	9893	204	102
0	9917	204	204
0	9932	204	204
0	9948	204	203
0	9955	204	203
0	9961	204	202
0	9967	204	202
0	9973	204	201
0	9979	204	201
0	9985	204	101
0	9991	204	101
0	9997	204	1
0	10031	205	201
0	10056	205	201
0	10076	205	101
0	10096	205	101
0	10107	205	1
0	10143	206	201
0	10168	206	101
0	10188	206	201
0	10208	206	101
0	10219	206	1
0	10261	207	201
0	10282	207	101
0	10307	207	201
0	10323	207	101
0	10338	207	1
0	10384	208	201
0	10405	208	101
0	10429	208	201
0	10445	208	101
0	10459	208	1
0	10504	209	201
0	10525	209	101
0	10549	209	201
0	10565	209	101
0	10579	209	1
0	10651	210	201
0	10680	210	101
0	10701	210	201
0	10720	210	101
0	10732	210	1
0	10799	211	201
0	10829	211	101
0	10850	211	201
0	10869	211	101
0	10881	211	1
0	10947	212	201
0	10977	212	101
0	10998	212	201
0	11017	212	101
0	11029	212	1
0	11078	213	201
0	11094	213	101
0	11106	213	201
0	11117	213	101
0	11124	213	1
0	11181	214	1
0	11343	215	202
0	11370	215	102
0	11391	215	201
0	11411	215	101
0	11427	215	202
0	11439	215	102
0	11450	215	201
0	11461	215	101
0	11468	215	1
0	11535	216	201
0	11563	216	101
0	11586	216	201
0	11607	216	101
0	11621	216	1
0	11688	217	201
0	11715	217	101
0	11740	217	201
0	11759	217	101
0	11775	217	1
0	11840	218	201
0	11866	218	101
0	11891	218	201
0	11910	218	101
0	11926	218	1
0	12017	219	201
0	12043	219	101
0	12068	219	201
0	12087	219	101
0	12103	219	1
0	12274	220	220
0	12301	220	219
0	12326	220	218
0	12346	220	217
0	12366	220	216
0	12378	220	215
0	12390	220	214
0	12401	220	213
0	12413	220	212
0	12424	220	211
0	12436	220	210
0	12447	220	209
0	12459	220	208
0	12470	220	207
0	12482	220	206
0	12493	220	205
0	12505	220	204
0	12516	220	203
0	12528	220	202
0	12539	220	201
0	12551	220	201
0	12562	220	101
0	12574	220	201
0	12585	220	101
0	12593	220	1
0	12667	221	201
0	12693	221	201
0	12719	221	101
0	12738	221	201
0	12759	221	101
0	12767	221	1
0	12907	222	215
0	12939	222	115
0	12960	222	214
0	12985	222	114
0	13005	222	213
0	13024	222	113
0	13036	222	212
0	13048	222	112
0	13060	222	211
0	13072	222	111
0	13084	222	210
0	13096	222	110
0	13108	222	209
0	13120	222	109
0	13132	222	208
0	13144	222	108
0	13156	222	207
0	13168	222	107
0	13180	222	206
0	13192	222	106
0	13204	222	205
0	13216	222	105
0	13228	222	204
0	13240	222	104
0	13252	222	222
0	13264	222	221
0	13276	222	220
0	13288	222	219
0	13300	222	218
0	13312	222	217
0	13324	222	216
0	13336	222	203
0	13348	222	103
0	13360	222	202
0	13372	222	102
0	13384	222	201
0	13396	222	101
0	13408	222	201
0	13420	222	201
0	13432	222	101
0	13444	222	201
0	13456	222	101
0	13464	222	1
0	13522	223	201
0	13548	223	101
0	13565	223	201
0	13579	223	201
0	13593	223	101
0	13604	223	201
0	13617	223	101
0	13624	223	1
0	13674	224	201
0	13700	224	101
0	13714	224	201
0	13723	224	101
0	13730	224	201
0	13736	224	101
0	13778	225	201
0	13795	225	101
0	13806	225	201
0	13812	225	101
0	13818	225	201
0	13824	225	101
0	13850	226	201
0	13863	226	101
0	13872	226	201
0	13879	226	101
0	13902	227	201
0	13914	227	101
0	13923	227	201
0	13930	227	101
0	13953	228	201
0	13965	228	101
0	13974	228	201
0	13981	228	101
0	14005	229	201
0	14017	229	101
0	14026	229	201
0	14033	229	101
0	14057	230	201
0	14070	230	101
0	14079	230	201
0	14086	230	101
0	14109	231	201
0	14120	231	101
0	14129	231	201
0	14136	231	101
0	14158	232	201
0	14171	232	201
0	14180	232	101
0	14202	233	201
0	14215	233	201
0	14224	233	101
0	14246	234	201
0	14260	234	201
0	14269	234	101
0	14319	235	201
0	14327	235	142
0	14341	235	201
0	14347	235	141
0	14356	235	101
0	14362	235	140
0	14370	235	139
0	14376	235	138
0	14382	235	137
0	14388	235	136
0	14394	235	135
0	14400	235	134
0	14406	235	133
0	14412	235	235
0	14418	235	234
0	14424	235	233
0	14430	235	232
0	14436	235	132
0	14442	235	231
0	14448	235	131
0	14454	235	230
0	14460	235	130
0	14466	235	229
0	14472	235	129
0	14478	235	204
0	14484	235	104
0	14490	235	203
0	14496	235	103
0	14502	235	202
0	14508	235	102
0	14514	235	201
0	14520	235	101
0	14541	236	201
0	14549	236	201
0	14565	236	101
0	14574	236	201
0	14581	236	101
0	14601	237	201
0	14609	237	201
0	14625	237	101
0	14634	237	201
0	14641	237	101
0	14662	238	201
0	14676	238	101
0	14685	238	201
0	14692	238	101
0	14712	239	201
0	14726	239	101
0	14735	239	201
0	14742	239	101
0	14764	240	201
0	14778	240	101
0	14787	240	201
0	14794	240	101
0	14815	241	201
0	14829	241	101
0	14838	241	201
0	14845	241	101
0	14865	242	201
0	14879	242	101
0	14888	242	201
0	14895	242	101
0	14930	243	201
0	14936	243	101
0	14942	243	201
0	14948	243	101
0	14989	244	213
0	15000	244	212
0	15011	244	211
0	15022	244	210
0	15033	244	209
0	15044	244	208
0	15055	244	207
0	15066	244	206
0	15077	244	205
0	15088	244	204
0	15099	244	203
0	15110	244	202
0	15121	244	201
0	15128	244	101
0	15164	245	201
0	15174	245	101
0	15304	246	201
0	15332	246	101
0	15357	246	215
0	15385	246	214
0	15410	246	213
0	15438	246	212
0	15463	246	211
0	15491	246	210
0	15516	246	209
0	15544	246	208
0	15569	246	207
0	15597	246	206
0	15622	246	205
0	15650	246	204
0	15675	246	203
0	15703	246	103
0	15728	246	202
0	15756	246	102
0	15781	246	201
0	15805	246	101
0	16802	247	201
0	16826	247	101
0	16845	247	201
0	16865	247	101
0	16875	247	224
0	16884	247	124
0	16891	247	24
0	16897	247	223
0	16903	247	123
0	16909	247	23
0	16915	247	222
0	16921	247	122
0	16927	247	22
0	16933	247	221
0	16939	247	121
0	16945	247	21
0	16951	247	220
0	16957	247	120
0	16963	247	20
0	16969	247	219
0	16975	247	119
0	16981	247	19
0	16987	247	218
0	16993	247	118
0	16999	247	18
0	17005	247	217
0	17011	247	117
0	17017	247	17
0	17023	247	216
0	17029	247	116
0	17035	247	16
0	17041	247	215
0	17047	247	115
0	17053	247	15
0	17059	247	214
0	17065	247	114
0	17071	247	14
0	17077	247	213
0	17083	247	113
0	17089	247	13
0	17095	247	212
0	17101	247	112
0	17107	247	12
0	17113	247	211
0	17119	247	111
0	17125	247	11
0	17131	247	210
0	17137	247	110
0	17143	247	10
0	17149	247	209
0	17155	247	109
0	17161	247	9
0	17167	247	208
0	17173	247	108
0	17179	247	8
0	17185	247	207
0	17191	247	107
0	17197	247	7
0	17203	247	206
0	17209	247	106
0	17215	247	6
0	17221	247	205
0	17227	247	105
0	17233	247	5
0	17239	247	204
0	17245	247	104
0	17251	247	4
0	17257	247	203
0	17263	247	103
0	17269	247	3
0	17275	247	202
0	17281	247	102
0	17287	247	2
0	17293	247	201
0	17299	247	101
0	17305	247	1
0	17345	248	201
0	17369	248	101
0	17389	248	201
0	17408	248	101
0	17418	248	201
0	17427	248	101
0	17434	248	1
0	17470	249	201
0	17494	249	101
0	17513	249	201
0	17533	249	101
0	17543	249	201
0	17552	249	101
0	17559	249	1
0	17596	250	201
0	17621	250	101
0	17640	250	201
0	17660	250	101
0	17670	250	201
0	17679	250	101
0	17686	250	1
0	17721	251	201
0	17735	251	101
0	17749	251	201
0	17763	251	101
0	17773	251	201
0	17782	251	101
0	17789	251	1
0	17827	252	201
0	17841	252	101
0	17855	252	201
0	17865	252	101
0	17874	252	201
0	17883	252	101
0	17890	252	1
0	17930	253	201
0	17945	253	101
0	17959	253	201
0	17969	253	101
0	17978	253	201
0	17987	253	101
0	17994	253	1
0	18033	254	201
0	18048	254	101
0	18062	254	201
0	18072	254	101
0	18081	254	201
0	18090	254	101
0	18097	254	1
0	18135	255	201
0	18151	255	101
0	18165	255	201
0	18175	255	101
0	18184	255	201
0	18193	255	101
0	18200	255	1
0	18240	256	201
0	18257	256	101
0	18272	256	201
0	18282	256	101
0	18291	256	201
0	18300	256	101
0	18307	256	1
0	18345	257	201
0	18362	257	101
0	18377	257	201
0	18387	257	101
0	18396	257	201
0	18405	257	101
0	18412	257	1
0	18450	258	201
0	18467	258	101
0	18482	258	201
0	18492	258	101
0	18501	258	201
0	18510	258	101
0	18517	258	1
0	18555	259	201
0	18572	259	101
0	18587	259	201
0	18597	259	101
0	18606	259	201
0	18615	259	101
0	18622	259	1
0	18662	260	201
0	18681	260	101
0	18696	260	201
0	18706	260	101
0	18715	260	201
0	18724	260	101
0	18731	260	1
0	18771	261	201
0	18788	261	101
0	18803	261	201
0	18813	261	101
0	18822	261	201
0	18831	261	101
0	18838	261	1
0	18879	262	201
0	18897	262	101
0	18912	262	201
0	18922	262	101
0	18931	262	201
0	18940	262	101
0	18947	262	1
0	18986	263	201
0	18998	263	220
0	19009	263	101
0	19025	263	201
0	19035	263	101
0	19044	263	201
0	19053	263	101
0	19060	263	1
0	19098	264	201
0	19114	264	101
0	19128	264	201
0	19138	264	101
0	19147	264	201
0	19156	264	101
0	19163	264	1
0	19202	265	201
0	19215	265	201
0	19226	265	101
0	19235	265	101
0	19251	265	201
0	19261	265	101
0	19270	265	1
0	19307	266	201
0	19320	266	201
0	19335	266	101
0	19350	266	201
0	19360	266	101
0	19369	266	1
0	19405	267	201
0	19419	267	201
0	19434	267	101
0	19449	267	201
0	19459	267	101
0	19468	267	1
0	19505	268	201
0	19519	268	101
0	19534	268	201
0	19544	268	101
0	19553	268	1
0	19586	269	202
0	19605	269	201
0	19620	269	101
0	19630	269	201
0	19639	269	101
0	19648	269	1
0	19686	270	201
0	19704	270	101
0	19719	270	201
0	19729	270	101
0	19738	270	1
0	19776	271	201
0	19794	271	101
0	19809	271	201
0	19819	271	101
0	19828	271	1
0	19871	272	201
0	19889	272	101
0	19905	272	201
0	19915	272	101
0	19924	272	1
0	19969	273	201
0	19988	273	101
0	20006	273	201
0	20016	273	101
0	20025	273	1
0	20068	274	201
0	20088	274	101
0	20105	274	201
0	20115	274	101
0	20124	274	1
0	20203	275	210
0	20212	275	201
0	20230	275	110
0	20236	275	101
0	20253	275	209
0	20259	275	201
0	20269	275	109
0	20275	275	101
0	20284	275	208
0	20290	275	1
0	20297	275	108
0	20304	275	207
0	20310	275	107
0	20316	275	206
0	20322	275	106
0	20328	275	205
0	20334	275	105
0	20340	275	204
0	20346	275	104
0	20352	275	203
0	20358	275	103
0	20364	275	202
0	20370	275	102
0	20376	275	201
0	20382	275	101
0	20418	276	201
0	20434	276	201
0	20448	276	201
0	20457	276	101
0	20471	276	101
0	20482	276	201
0	20491	276	101
0	20500	276	1
0	20537	277	201
0	20553	277	201
0	20567	277	201
0	20576	277	101
0	20590	277	101
0	20601	277	201
0	20610	277	101
0	20619	277	1
0	20662	278	201
0	20678	278	201
0	20698	278	201
0	20707	278	101
0	20725	278	101
0	20737	278	201
0	20746	278	101
0	20755	278	1
0	20798	279	201
0	20815	279	201
0	20834	279	201
0	20843	279	101
0	20861	279	101
0	20870	279	201
0	20878	279	201
0	20887	279	101
0	20893	279	101
0	20903	279	1
0	20946	280	201
0	20963	280	201
0	20983	280	201
0	20992	280	101
0	21010	280	101
0	21019	280	201
0	21027	280	201
0	21036	280	101
0	21042	280	101
0	21052	280	1
0	21096	281	201
0	21111	281	201
0	21131	281	201
0	21140	281	101
0	21158	281	101
0	21167	281	201
0	21175	281	201
0	21184	281	101
0	21190	281	101
0	21200	281	1
0	21246	282	201
0	21260	282	201
0	21280	282	201
0	21289	282	101
0	21306	282	101
0	21315	282	201
0	21323	282	201
0	21332	282	101
0	21338	282	101
0	21348	282	1
0	21392	283	201
0	21406	283	201
0	21425	283	201
0	21434	283	101
0	21451	283	101
0	21460	283	201
0	21468	283	201
0	21477	283	101
0	21483	283	101
0	21493	283	1
0	21537	284	201
0	21551	284	201
0	21571	284	201
0	21580	284	101
0	21597	284	101
0	21606	284	201
0	21614	284	201
0	21623	284	101
0	21629	284	101
0	21639	284	1
0	21683	285	201
0	21697	285	201
0	21718	285	201
0	21727	285	101
0	21744	285	101
0	21753	285	201
0	21761	285	201
0	21770	285	101
0	21776	285	101
0	21786	285	1
0	21843	286	201
0	21873	286	101
0	21902	286	201
0	21921	286	101
0	21937	286	201
0	21951	286	201
0	21963	286	101
0	21970	286	201
0	21976	286	101
0	21982	286	1
0	22056	287	201
0	22085	287	101
0	22106	287	201
0	22120	287	101
0	22136	287	201
0	22150	287	201
0	22166	287	101
0	22178	287	101
0	22187	287	1
0	22261	288	201
0	22290	288	101
0	22311	288	201
0	22325	288	101
0	22341	288	201
0	22355	288	201
0	22371	288	101
0	22383	288	101
0	22392	288	1
0	22455	289	201
0	22483	289	101
0	22501	289	201
0	22513	289	201
0	22522	289	101
0	22531	289	101
0	22540	289	1
0	22547	289	201
0	22553	289	101
0	22613	290	201
0	22634	290	101
0	22649	290	201
0	22661	290	101
0	22670	290	201
0	22679	290	201
0	22688	290	101
0	22695	290	101
0	22701	290	1
0	22747	291	201
0	22771	291	101
0	22791	291	201
0	22803	291	101
0	22812	291	201
0	22821	291	201
0	22830	291	101
0	22839	291	101
0	22846	291	1
0	22894	292	201
0	22919	292	101
0	22939	292	201
0	22951	292	101
0	22960	292	201
0	22969	292	201
0	22978	292	101
0	22987	292	101
0	22994	292	1
0	23028	293	201
0	23047	293	101
0	23059	293	201
0	23066	293	101
0	23072	293	201
0	23078	293	201
0	23084	293	101
0	23090	293	101
0	23096	293	1
0	23119	294	201
0	23138	294	201
0	23147	294	1
0	23168	295	201
0	23186	295	201
0	23195	295	1
0	23215	296	201
0	23233	296	201
0	23242	296	1
0	23298	297	201
0	23326	297	201
0	23345	297	1
0	23618	298	201
0	23645	298	205
0	23665	298	105
0	23677	298	204
0	23686	298	104
0	23695	298	203
0	23704	298	103
0	23711	298	202
0	23717	298	102
0	23723	298	101
0	23729	298	201
0	23735	298	205
0	23741	298	105
0	23747	298	204
0	23753	298	104
0	23759	298	203
0	23765	298	103
0	23771	298	202
0	23777	298	102
0	23783	298	101
0	23789	298	205
0	23795	298	205
0	23801	298	105
0	23807	298	105
0	23813	298	204
0	23819	298	204
0	23825	298	104
0	23831	298	104
0	23837	298	203
0	23843	298	203
0	23849	298	103
0	23855	298	103
0	23861	298	202
0	23867	298	202
0	23873	298	102
0	23879	298	102
0	23885	298	201
0	23891	298	201
0	23897	298	101
0	23903	298	101
0	23909	298	1
0	23955	299	201
0	23980	299	101
0	23999	299	201
0	24010	299	101
0	24019	299	201
0	24028	299	201
0	24037	299	101
0	24044	299	101
0	24050	299	1
0	24095	300	201
0	24120	300	101
0	24139	300	201
0	24150	300	101
0	24159	300	201
0	24168	300	201
0	24177	300	101
0	24184	300	101
0	24190	300	1
0	24233	301	201
0	24258	301	101
0	24277	301	201
0	24288	301	101
0	24297	301	201
0	24306	301	201
0	24315	301	101
0	24322	301	101
0	24328	301	1
0	24364	302	201
0	24389	302	101
0	24408	302	201
0	24419	302	101
0	24428	302	201
0	24437	302	201
0	24444	302	101
0	24450	302	101
0	24456	302	1
0	24504	303	201
0	24529	303	101
0	24548	303	201
0	24567	303	201
0	24586	303	101
0	24605	303	101
0	24624	303	1
0	24739	304	202
0	24764	304	304
0	24783	304	303
0	24802	304	302
0	24813	304	301
0	24822	304	201
0	24831	304	101
0	24840	304	202
0	24849	304	304
0	24856	304	303
0	24862	304	302
0	24868	304	301
0	24874	304	201
0	24880	304	304
0	24886	304	304
0	24892	304	303
0	24898	304	303
0	24904	304	302
0	24910	304	302
0	24916	304	301
0	24922	304	301
0	24928	304	201
0	24934	304	201
0	24940	304	101
0	24946	304	101
0	24952	304	1
0	24999	305	301
0	25019	305	201
0	25033	305	101
0	25047	305	301
0	25057	305	201
0	25066	305	301
0	25073	305	301
0	25079	305	201
0	25085	305	201
0	25091	305	101
0	25097	305	101
0	25103	305	1
0	25145	306	301
0	25167	306	201
0	25181	306	101
0	25195	306	301
0	25205	306	201
0	25214	306	101
0	25221	306	301
0	25227	306	201
0	25233	306	101
0	25283	307	301
0	25298	307	201
0	25312	307	101
0	25322	307	301
0	25331	307	201
0	25340	307	101
0	25349	307	301
0	25356	307	201
0	25362	307	101
0	25414	308	301
0	25430	308	201
0	25444	308	101
0	25454	308	301
0	25463	308	201
0	25472	308	101
0	25481	308	301
0	25488	308	201
0	25494	308	101
0	25545	309	301
0	25560	309	201
0	25574	309	101
0	25584	309	301
0	25593	309	201
0	25602	309	101
0	25611	309	301
0	25618	309	201
0	25624	309	101
0	25688	310	301
0	25708	310	201
0	25728	310	101
0	25743	310	301
0	25758	310	201
0	25772	310	101
0	25785	310	301
0	25796	310	201
0	25808	310	101
0	25815	310	301
0	25821	310	201
0	25827	310	101
0	25890	311	301
0	25915	311	201
0	25944	311	101
0	25968	311	301
0	25997	311	201
0	26021	311	101
0	26050	311	301
0	26074	311	201
0	26103	311	101
0	26123	311	301
0	26146	311	201
0	26165	311	101
0	26574	312	301
0	26601	312	201
0	26631	312	101
0	26655	312	301
0	26681	312	201
0	26700	312	101
0	26721	312	301
0	26736	312	201
0	26752	312	101
0	26766	312	301
0	26780	312	201
0	26791	312	101
0	26804	312	307
0	26815	312	207
0	26828	312	107
0	26839	312	7
0	26852	312	306
0	26863	312	206
0	26876	312	106
0	26887	312	6
0	26900	312	305
0	26911	312	205
0	26924	312	105
0	26935	312	5
0	26948	312	304
0	26959	312	204
0	26972	312	104
0	26983	312	4
0	26996	312	303
0	27007	312	203
0	27020	312	103
0	27031	312	3
0	27044	312	302
0	27055	312	202
0	27068	312	102
0	27079	312	2
0	27092	312	301
0	27099	312	201
0	27105	312	101
0	27111	312	1
0	27175	313	301
0	27203	313	201
0	27230	313	101
0	27245	313	301
0	27261	313	201
0	27273	313	101
0	27286	313	301
0	27297	313	201
0	27310	313	101
0	27321	313	301
0	27334	313	201
0	27345	313	101
0	27358	313	301
0	27365	313	201
0	27371	313	101
0	27377	313	1
0	27440	314	101
0	27461	314	101
0	27486	314	101
0	27505	314	101
0	27530	314	101
0	27545	314	1
0	27647	315	302
0	27668	315	202
0	27693	315	301
0	27712	315	201
0	27733	315	101
0	27743	315	302
0	27752	315	202
0	27759	315	301
0	27765	315	201
0	27771	315	101
0	27777	315	302
0	27783	315	202
0	27789	315	301
0	27795	315	201
0	27801	315	101
0	27807	315	1
0	27813	315	302
0	27819	315	202
0	27825	315	301
0	27831	315	201
0	27837	315	101
0	27904	316	301
0	27925	316	201
0	27949	316	101
0	27964	316	301
0	27977	316	201
0	27986	316	101
0	27995	316	301
0	28002	316	201
0	28008	316	101
0	28014	316	1
0	28020	316	301
0	28026	316	201
0	28032	316	101
0	28096	317	301
0	28118	317	201
0	28142	317	101
0	28157	317	301
0	28170	317	201
0	28179	317	101
0	28188	317	301
0	28195	317	201
0	28201	317	101
0	28207	317	1
0	28213	317	301
0	28219	317	201
0	28225	317	101
0	28289	318	301
0	28310	318	201
0	28333	318	101
0	28348	318	301
0	28360	318	201
0	28369	318	101
0	28378	318	301
0	28385	318	201
0	28391	318	101
0	28397	318	1
0	28403	318	301
0	28409	318	201
0	28415	318	101
0	28499	319	301
0	28521	319	201
0	28544	319	101
0	28563	319	301
0	28582	319	201
0	28596	319	101
0	28612	319	301
0	28624	319	201
0	28637	319	101
0	28648	319	301
0	28657	319	201
0	28663	319	101
0	28669	319	1
0	28775	320	320
0	28797	320	319
0	28820	320	318
0	28839	320	317
0	28858	320	316
0	28872	320	315
0	28888	320	314
0	28900	320	313
0	28913	320	312
0	28924	320	311
0	28937	320	310
0	28948	320	309
0	28961	320	308
0	28972	320	307
0	28985	320	306
0	28996	320	305
0	29009	320	304
0	29020	320	303
0	29033	320	302
0	29044	320	301
0	29057	320	201
0	29068	320	101
0	29081	320	320
0	29092	320	319
0	29105	320	318
0	29116	320	317
0	29129	320	316
0	29140	320	315
0	29153	320	314
0	29160	320	313
0	29166	320	312
0	29172	320	311
0	29178	320	310
0	29184	320	309
0	29190	320	308
0	29196	320	307
0	29202	320	306
0	29208	320	305
0	29214	320	304
0	29220	320	303
0	29226	320	302
0	29232	320	301
0	29238	320	201
0	29244	320	101
0	29250	320	301
0	29256	320	201
0	29262	320	101
0	29268	320	301
0	29274	320	201
0	29280	320	101
0	29286	320	1
0	29354	321	301
0	29375	321	201
0	29398	321	101
0	29417	321	301
0	29436	321	201
0	29450	321	101
0	29466	321	301
0	29478	321	201
0	29491	321	101
0	29502	321	301
0	29511	321	201
0	29517	321	101
0	29523	321	1
0	29665	322	315
0	29686	322	215
0	29709	322	314
0	29728	322	214
0	29747	322	313
0	29761	322	213
0	29777	322	312
0	29789	322	212
0	29802	322	311
0	29813	322	211
0	29826	322	310
0	29837	322	210
0	29850	322	309
0	29861	322	209
0	29874	322	308
0	29885	322	208
0	29898	322	307
0	29909	322	207
0	29922	322	306
0	29933	322	206
0	29946	322	305
0	29957	322	205
0	29970	322	304
0	29981	322	204
0	29994	322	322
0	30005	322	321
0	30018	322	320
0	30029	322	319
0	30042	322	318
0	30053	322	317
0	30066	322	316
0	30077	322	303
0	30090	322	203
0	30101	322	302
0	30114	322	202
0	30125	322	301
0	30138	322	201
0	30149	322	101
0	30162	322	315
0	30173	322	215
0	30186	322	314
0	30197	322	214
0	30210	322	313
0	30221	322	213
0	30234	322	312
0	30241	322	212
0	30247	322	311
0	30253	322	211
0	30259	322	310
0	30265	322	210
0	30271	322	309
0	30277	322	209
0	30283	322	308
0	30289	322	208
0	30295	322	307
0	30301	322	207
0	30307	322	306
0	30313	322	206
0	30319	322	305
0	30325	322	205
0	30331	322	304
0	30337	322	204
0	30343	322	322
0	30349	322	321
0	30355	322	320
0	30361	322	319
0	30367	322	318
0	30373	322	317
0	30379	322	316
0	30385	322	303
0	30391	322	203
0	30397	322	302
0	30403	322	202
0	30409	322	301
0	30415	322	201
0	30421	322	101
0	30427	322	301
0	30433	322	201
0	30439	322	101
0	30445	322	301
0	30451	322	201
0	30457	322	101
0	30463	322	1
0	30519	323	301
0	30543	323	201
0	30561	323	101
0	30573	323	301
0	30586	323	201
0	30597	323	101
0	30610	323	301
0	30621	323	201
0	30634	323	101
0	30645	323	301
0	30654	323	201
0	30660	323	101
0	30666	323	1
0	30705	324	301
0	30729	324	201
0	30747	324	301
0	30759	324	201
0	30772	324	301
0	30779	324	201
0	30785	324	1
0	30816	325	301
0	30837	325	201
0	30855	325	301
0	30867	325	201
0	30880	325	301
0	30887	325	201
0	30893	325	1
0	30933	326	301
0	30952	326	201
0	30962	326	1
0	30999	327	301
0	31018	327	201
0	31028	327	1
0	31066	328	301
0	31084	328	201
0	31094	328	1
0	31138	329	301
0	31158	329	201
0	31170	329	1
0	31478	330	317
0	31498	330	217
0	31512	330	316
0	31519	330	216
0	31525	330	116
0	31531	330	315
0	31537	330	215
0	31543	330	115
0	31549	330	314
0	31555	330	214
0	31561	330	114
0	31567	330	313
0	31573	330	213
0	31579	330	113
0	31585	330	312
0	31591	330	212
0	31597	330	112
0	31603	330	330
0	31609	330	329
0	31615	330	328
0	31621	330	327
0	31627	330	326
0	31633	330	325
0	31639	330	324
0	31645	330	323
0	31651	330	322
0	31657	330	321
0	31663	330	320
0	31669	330	319
0	31675	330	318
0	31681	330	311
0	31687	330	211
0	31693	330	111
0	31699	330	310
0	31705	330	210
0	31711	330	110
0	31717	330	309
0	31723	330	209
0	31729	330	109
0	31735	330	308
0	31741	330	208
0	31747	330	108
0	31753	330	307
0	31759	330	207
0	31765	330	306
0	31771	330	206
0	31777	330	305
0	31783	330	205
0	31789	330	304
0	31795	330	204
0	31801	330	303
0	31807	330	203
0	31813	330	302
0	31819	330	202
0	31825	330	301
0	31831	330	201
0	31837	330	301
0	31843	330	201
0	31849	330	1
0	31893	331	301
0	31915	331	201
0	31931	331	301
0	31941	331	201
0	31948	331	1
0	31989	332	301
0	32011	332	1
0	32024	332	201
0	32033	332	301
0	32040	332	201
0	32082	333	301
0	32104	333	1
0	32116	333	201
0	32125	333	301
0	32132	333	201
0	32172	334	301
0	32194	334	1
0	32206	334	201
0	32215	334	301
0	32222	334	201
0	32277	335	242
0	32303	335	241
0	32321	335	240
0	32331	335	239
0	32340	335	238
0	32347	335	237
0	32353	335	236
0	32359	335	235
0	32365	335	234
0	32371	335	233
0	32377	335	335
0	32383	335	334
0	32389	335	333
0	32395	335	332
0	32401	335	232
0	32407	335	331
0	32413	335	231
0	32419	335	330
0	32425	335	230
0	32431	335	329
0	32437	335	229
0	32443	335	304
0	32449	335	204
0	32455	335	303
0	32461	335	203
0	32467	335	302
0	32473	335	202
0	32479	335	301
0	32485	335	201
0	32491	335	301
0	32497	335	1
0	32503	335	201
0	32509	335	301
0	32515	335	201
0	32544	336	301
0	32564	336	201
0	32580	336	301
0	32590	336	1
0	32599	336	201
0	32606	336	301
0	32633	337	301
0	32653	337	201
0	32669	337	301
0	32679	337	1
0	32688	337	201
0	32695	337	301
0	32716	338	301
0	32735	338	201
0	32751	338	301
0	32761	338	1
0	32770	338	201
0	32793	339	301
0	32811	339	201
0	32827	339	301
0	32837	339	1
0	32846	339	201
0	32869	340	301
0	32888	340	201
0	32904	340	301
0	32914	340	1
0	32923	340	201
0	32945	341	301
0	32964	341	201
0	32980	341	301
0	32990	341	1
0	32999	341	201
0	33022	342	301
0	33040	342	201
0	33056	342	301
0	33066	342	1
0	33075	342	201
0	33096	343	301
0	33109	343	201
0	33120	343	301
0	33127	343	1
0	33133	343	201
0	33179	344	313
0	33197	344	312
0	33214	344	311
0	33226	344	310
0	33237	344	309
0	33248	344	308
0	33259	344	307
0	33270	344	306
0	33281	344	305
0	33292	344	304
0	33303	344	303
0	33314	344	302
0	33325	344	301
0	33336	344	201
0	33343	344	1
0	33349	344	313
0	33355	344	312
0	33361	344	311
0	33367	344	310
0	33373	344	309
0	33379	344	308
0	33385	344	307
0	33391	344	306
0	33397	344	305
0	33403	344	304
0	33409	344	303
0	33415	344	302
0	33421	344	301
0	33427	344	201
0	33471	345	301
0	33491	345	201
0	33508	345	301
0	33518	345	201
0	33527	345	1
0	33893	346	301
0	33920	346	201
0	33944	346	315
0	33969	346	314
0	33994	346	313
0	34018	346	312
0	34043	346	311
0	34068	346	310
0	34092	346	309
0	34117	346	308
0	34142	346	307
0	34166	346	306
0	34191	346	305
0	34216	346	304
0	34240	346	303
0	34265	346	203
0	34290	346	302
0	34314	346	202
0	34339	346	301
0	34364	346	201
0	34388	346	315
0	34413	346	314
0	34438	346	313
0	34462	346	312
0	34487	346	311
0	34512	346	310
0	34536	346	309
0	34561	346	308
0	34586	346	307
0	34610	346	306
0	34635	346	305
0	34660	346	304
0	34684	346	303
0	34709	346	203
0	34734	346	302
0	34758	346	202
0	34783	346	315
0	34804	346	314
0	34823	346	313
0	34843	346	312
0	34863	346	311
0	34882	346	310
0	34902	346	309
0	34922	346	308
0	34941	346	307
0	34961	346	306
0	34981	346	305
0	35000	346	304
0	35020	346	303
0	35040	346	203
0	35059	346	302
0	35079	346	202
0	35099	346	301
0	35118	346	201
0	35138	346	1
0	36358	347	301
0	36379	347	201
0	36399	347	324
0	36419	347	224
0	36430	347	124
0	36439	347	323
0	36448	347	223
0	36457	347	123
0	36466	347	322
0	36475	347	222
0	36484	347	122
0	36491	347	321
0	36497	347	221
0	36503	347	121
0	36509	347	320
0	36515	347	220
0	36521	347	120
0	36527	347	319
0	36533	347	219
0	36539	347	119
0	36545	347	318
0	36551	347	218
0	36557	347	118
0	36563	347	317
0	36569	347	217
0	36575	347	117
0	36581	347	316
0	36587	347	216
0	36593	347	116
0	36599	347	315
0	36605	347	215
0	36611	347	115
0	36617	347	314
0	36623	347	214
0	36629	347	114
0	36635	347	313
0	36641	347	213
0	36647	347	113
0	36653	347	312
0	36659	347	212
0	36665	347	112
0	36671	347	311
0	36677	347	211
0	36683	347	111
0	36689	347	310
0	36695	347	210
0	36701	347	110
0	36707	347	309
0	36713	347	209
0	36719	347	109
0	36725	347	308
0	36731	347	208
0	36737	347	108
0	36743	347	307
0	36749	347	207
0	36755	347	107
0	36761	347	306
0	36767	347	206
0	36773	347	106
0	36779	347	305
0	36785	347	205
0	36791	347	105
0	36797	347	304
0	36803	347	204
0	36809	347	104
0	36815	347	303
0	36821	347	203
0	36827	347	103
0	36833	347	302
0	36839	347	202
0	36845	347	102
0	36851	347	101
0	36857	347	301
0	36863	347	201
0	36869	347	324
0	36875	347	224
0	36881	347	124
0	36887	347	323
0	36893	347	223
0	36899	347	123
0	36905	347	322
0	36911	347	222
0	36917	347	122
0	36923	347	321
0	36929	347	221
0	36935	347	121
0	36941	347	320
0	36947	347	220
0	36953	347	120
0	36959	347	319
0	36965	347	219
0	36971	347	119
0	36977	347	318
0	36983	347	218
0	36989	347	118
0	36995	347	317
0	37001	347	217
0	37007	347	117
0	37013	347	316
0	37019	347	216
0	37025	347	116
0	37031	347	315
0	37037	347	215
0	37043	347	115
0	37049	347	314
0	37055	347	214
0	37061	347	114
0	37067	347	313
0	37073	347	213
0	37079	347	113
0	37085	347	312
0	37091	347	212
0	37097	347	112
0	37103	347	311
0	37109	347	211
0	37115	347	111
0	37121	347	310
0	37127	347	210
0	37133	347	110
0	37139	347	309
0	37145	347	209
0	37151	347	109
0	37157	347	308
0	37163	347	208
0	37169	347	108
0	37175	347	307
0	37181	347	207
0	37187	347	107
0	37193	347	306
0	37199	347	206
0	37205	347	106
0	37211	347	305
0	37217	347	205
0	37223	347	105
0	37229	347	304
0	37235	347	204
0	37241	347	104
0	37247	347	303
0	37253	347	203
0	37259	347	103
0	37265	347	302
0	37271	347	202
0	37277	347	102
0	37283	347	101
0	37289	347	324
0	37295	347	324
0	37301	347	224
0	37307	347	224
0	37313	347	124
0	37319	347	124
0	37325	347	323
0	37331	347	323
0	37337	347	223
0	37343	347	223
0	37349	347	123
0	37355	347	123
0	37361	347	322
0	37367	347	322
0	37373	347	222
0	37379	347	222
0	37385	347	122
0	37391	347	122
0	37397	347	321
0	37403	347	321
0	37409	347	221
0	37415	347	221
0	37421	347	121
0	37427	347	121
0	37433	347	320
0	37439	347	320
0	37445	347	220
0	37451	347	220
0	37457	347	120
0	37463	347	120
0	37469	347	319
0	37475	347	319
0	37481	347	219
0	37487	347	219
0	37493	347	119
0	37499	347	119
0	37505	347	318
0	37511	347	318
0	37517	347	218
0	37523	347	218
0	37529	347	118
0	37535	347	118
0	37541	347	317
0	37547	347	317
0	37553	347	217
0	37559	347	217
0	37565	347	117
0	37571	347	117
0	37577	347	316
0	37583	347	316
0	37589	347	216
0	37595	347	216
0	37601	347	116
0	37607	347	116
0	37613	347	315
0	37619	347	315
0	37625	347	215
0	37631	347	215
0	37637	347	115
0	37643	347	115
0	37649	347	314
0	37655	347	314
0	37661	347	214
0	37667	347	214
0	37673	347	114
0	37679	347	114
0	37685	347	313
0	37691	347	313
0	37697	347	213
0	37703	347	213
0	37709	347	113
0	37715	347	113
0	37721	347	312
0	37727	347	312
0	37733	347	212
0	37739	347	212
0	37745	347	112
0	37751	347	112
0	37757	347	311
0	37763	347	311
0	37769	347	211
0	37775	347	211
0	37781	347	111
0	37787	347	111
0	37793	347	310
0	37799	347	310
0	37805	347	210
0	37811	347	210
0	37817	347	110
0	37823	347	110
0	37829	347	309
0	37835	347	309
0	37841	347	209
0	37847	347	209
0	37853	347	109
0	37859	347	109
0	37865	347	308
0	37871	347	308
0	37877	347	208
0	37883	347	208
0	37889	347	108
0	37895	347	108
0	37901	347	307
0	37907	347	307
0	37913	347	207
0	37919	347	207
0	37925	347	107
0	37931	347	107
0	37937	347	306
0	37943	347	306
0	37949	347	206
0	37955	347	206
0	37961	347	106
0	37967	347	106
0	37973	347	305
0	37979	347	305
0	37985	347	205
0	37991	347	205
0	37997	347	105
0	38003	347	105
0	38009	347	304
0	38015	347	304
0	38021	347	204
0	38027	347	204
0	38033	347	104
0	38039	347	104
0	38045	347	303
0	38051	347	303
0	38057	347	203
0	38063	347	203
0	38069	347	103
0	38075	347	103
0	38081	347	302
0	38087	347	302
0	38093	347	202
0	38099	347	202
0	38105	347	102
0	38111	347	102
0	38117	347	301
0	38123	347	301
0	38129	347	201
0	38135	347	201
0	38141	347	101
0	38147	347	101
0	38153	347	1
0	38208	348	301
0	38230	348	201
0	38250	348	101
0	38270	348	301
0	38281	348	201
0	38290	348	101
0	38299	348	301
0	38308	348	301
0	38317	348	201
0	38326	348	201
0	38335	348	101
0	38342	348	101
0	38348	348	1
0	38404	349	301
0	38420	349	201
0	38435	349	101
0	38449	349	301
0	38460	349	201
0	38469	349	101
0	38478	349	301
0	38487	349	301
0	38494	349	201
0	38500	349	201
0	38506	349	101
0	38512	349	101
0	38518	349	1
0	38568	350	301
0	38584	350	201
0	38599	350	101
0	38613	350	301
0	38624	350	201
0	38633	350	101
0	38642	350	301
0	38651	350	201
0	38658	350	101
0	38664	350	1
0	38703	351	301
0	38722	351	201
0	38737	351	101
0	38752	351	301
0	38767	351	201
0	38778	351	101
0	38787	351	301
0	38796	351	201
0	38803	351	101
0	38809	351	1
0	38856	352	301
0	38876	352	201
0	38895	352	101
0	38912	352	301
0	38927	352	201
0	38939	352	101
0	38951	352	301
0	38961	352	201
0	38968	352	101
0	38974	352	1
0	39032	353	301
0	39050	353	201
0	39066	353	101
0	39080	353	301
0	39092	353	201
0	39101	353	101
0	39110	353	301
0	39119	353	201
0	39126	353	101
0	39132	353	1
0	39179	354	301
0	39191	354	305
0	39202	354	201
0	39211	354	205
0	39224	354	101
0	39233	354	105
0	39244	354	301
0	39253	354	304
0	39262	354	201
0	39271	354	204
0	39277	354	101
0	39286	354	104
0	39292	354	301
0	39302	354	201
0	39309	354	101
0	39315	354	1
0	39360	355	301
0	39377	355	201
0	39393	355	101
0	39407	355	301
0	39419	355	201
0	39428	355	101
0	39437	355	301
0	39446	355	201
0	39453	355	101
0	39459	355	1
0	39504	356	301
0	39521	356	201
0	39537	356	101
0	39551	356	301
0	39563	356	201
0	39572	356	101
0	39581	356	301
0	39590	356	201
0	39597	356	101
0	39603	356	1
0	39649	357	301
0	39667	357	201
0	39683	357	101
0	39697	357	301
0	39709	357	201
0	39718	357	101
0	39727	357	301
0	39736	357	201
0	39743	357	101
0	39749	357	1
0	39795	358	301
0	39813	358	201
0	39829	358	101
0	39843	358	301
0	39855	358	201
0	39864	358	101
0	39873	358	301
0	39882	358	201
0	39889	358	101
0	39895	358	1
0	39941	359	301
0	39959	359	201
0	39975	359	101
0	39989	359	301
0	40001	359	201
0	40010	359	101
0	40019	359	301
0	40028	359	201
0	40035	359	101
0	40041	359	1
0	40088	360	301
0	40106	360	201
0	40122	360	101
0	40136	360	301
0	40148	360	201
0	40157	360	101
0	40166	360	301
0	40175	360	201
0	40182	360	101
0	40188	360	1
0	40235	361	301
0	40253	361	201
0	40269	361	101
0	40283	361	301
0	40295	361	201
0	40304	361	101
0	40313	361	301
0	40322	361	201
0	40329	361	101
0	40335	361	1
0	40382	362	301
0	40398	362	201
0	40413	362	101
0	40427	362	301
0	40438	362	201
0	40447	362	101
0	40456	362	301
0	40465	362	201
0	40472	362	101
0	40478	362	1
0	40526	363	301
0	40537	363	320
0	40549	363	201
0	40565	363	101
0	40579	363	301
0	40590	363	201
0	40599	363	101
0	40608	363	301
0	40617	363	201
0	40624	363	101
0	40630	363	1
0	40677	364	301
0	40695	364	201
0	40710	364	101
0	40724	364	301
0	40735	364	201
0	40744	364	101
0	40753	364	301
0	40762	364	201
0	40769	364	101
0	40775	364	1
0	40821	365	301
0	40833	365	301
0	40845	365	201
0	40854	365	201
0	40866	365	301
0	40875	365	101
0	40886	365	201
0	40898	365	101
0	40907	365	301
0	40916	365	201
0	40925	365	101
0	40932	365	1
0	40988	366	301
0	41007	366	201
0	41027	366	101
0	41046	366	301
0	41062	366	301
0	41076	366	201
0	41090	366	101
0	41102	366	301
0	41109	366	201
0	41115	366	101
0	41121	366	1
0	41176	367	301
0	41195	367	201
0	41214	367	101
0	41233	367	301
0	41248	367	301
0	41262	367	201
0	41276	367	101
0	41288	367	301
0	41295	367	201
0	41301	367	101
0	41307	367	1
0	41351	368	301
0	41376	368	201
0	41395	368	101
0	41418	368	301
0	41433	368	201
0	41445	368	101
0	41456	368	301
0	41467	368	201
0	41474	368	101
0	41480	368	1
0	41525	369	301
0	41548	369	201
0	41567	369	101
0	41590	369	1
0	41601	369	302
0	41608	369	301
0	41614	369	201
0	41620	369	101
0	41664	370	301
0	41687	370	201
0	41706	370	101
0	41725	370	1
0	41735	370	301
0	41742	370	201
0	41748	370	101
0	41792	371	301
0	41815	371	201
0	41834	371	101
0	41853	371	1
0	41863	371	301
0	41870	371	201
0	41876	371	101
0	41919	372	301
0	41942	372	201
0	41961	372	101
0	41980	372	1
0	41990	372	301
0	41997	372	201
0	42003	372	101
0	42048	373	301
0	42071	373	201
0	42090	373	101
0	42109	373	1
0	42119	373	301
0	42126	373	201
0	42132	373	101
0	42181	374	301
0	42203	374	201
0	42223	374	101
0	42241	374	1
0	42252	374	301
0	42259	374	201
0	42265	374	101
0	42323	375	310
0	42348	375	210
0	42367	375	309
0	42390	375	209
0	42401	375	308
0	42408	375	208
0	42414	375	307
0	42420	375	207
0	42426	375	306
0	42432	375	206
0	42438	375	305
0	42444	375	205
0	42450	375	304
0	42456	375	204
0	42462	375	303
0	42468	375	203
0	42474	375	302
0	42480	375	202
0	42486	375	301
0	42492	375	201
0	42498	375	301
0	42504	375	201
0	42510	375	101
0	42516	375	1
0	42522	375	301
0	42528	375	201
0	42534	375	101
0	42578	376	301
0	42596	376	201
0	42610	376	101
0	42667	377	301
0	42685	377	201
0	42699	377	101
0	42716	377	301
0	42726	377	201
0	42733	377	101
0	42739	377	1
0	42784	378	301
0	42802	378	201
0	42818	378	101
0	42832	378	301
0	42844	378	201
0	42853	378	101
0	42862	378	1
0	42914	379	301
0	42932	379	201
0	42949	379	101
0	42963	379	301
0	42976	379	201
0	42985	379	301
0	42994	379	201
0	43001	379	101
0	43007	379	1
0	43056	380	301
0	43074	380	201
0	43091	380	101
0	43105	380	301
0	43118	380	201
0	43127	380	301
0	43136	380	201
0	43143	380	101
0	43149	380	1
0	43199	381	301
0	43218	381	201
0	43236	381	101
0	43250	381	301
0	43264	381	201
0	43273	381	301
0	43282	381	201
0	43289	381	101
0	43295	381	1
0	43346	382	301
0	43366	382	201
0	43383	382	101
0	43397	382	301
0	43410	382	201
0	43419	382	301
0	43428	382	201
0	43435	382	101
0	43441	382	1
0	43491	383	301
0	43511	383	201
0	43527	383	101
0	43541	383	301
0	43553	383	201
0	43562	383	301
0	43571	383	201
0	43578	383	101
0	43584	383	1
0	43633	384	301
0	43652	384	201
0	43668	384	101
0	43682	384	301
0	43694	384	201
0	43703	384	301
0	43712	384	201
0	43719	384	101
0	43725	384	1
0	43774	385	301
0	43794	385	201
0	43810	385	101
0	43824	385	301
0	43836	385	201
0	43845	385	301
0	43854	385	201
0	43861	385	101
0	43867	385	1
0	43924	386	301
0	43943	386	201
0	43959	386	101
0	43973	386	301
0	43985	386	201
0	43994	386	301
0	44003	386	201
0	44010	386	101
0	44016	386	1
0	44076	387	301
0	44098	387	201
0	44117	387	101
0	44134	387	301
0	44149	387	201
0	44161	387	301
0	44173	387	201
0	44183	387	101
0	44192	387	1
0	44530	388	301
0	44554	388	201
0	44574	388	101
0	44591	388	301
0	44605	388	320
0	44614	388	201
0	44623	388	220
0	44630	388	301
0	44636	388	120
0	44642	388	201
0	44648	388	319
0	44654	388	101
0	44660	388	219
0	44666	388	1
0	44672	388	119
0	44678	388	318
0	44684	388	218
0	44690	388	118
0	44696	388	317
0	44702	388	217
0	44708	388	117
0	44714	388	316
0	44720	388	216
0	44726	388	116
0	44732	388	315
0	44738	388	215
0	44744	388	115
0	44750	388	314
0	44756	388	214
0	44762	388	114
0	44768	388	313
0	44774	388	213
0	44780	388	113
0	44786	388	312
0	44792	388	212
0	44798	388	112
0	44804	388	311
0	44810	388	211
0	44816	388	111
0	44822	388	310
0	44828	388	210
0	44834	388	110
0	44840	388	309
0	44846	388	209
0	44852	388	109
0	44858	388	308
0	44864	388	208
0	44870	388	108
0	44876	388	307
0	44882	388	207
0	44888	388	107
0	44894	388	306
0	44900	388	206
0	44906	388	106
0	44912	388	305
0	44918	388	205
0	44924	388	105
0	44930	388	304
0	44936	388	204
0	44942	388	104
0	44948	388	303
0	44954	388	203
0	44960	388	103
0	44966	388	302
0	44972	388	202
0	44978	388	102
0	44984	388	301
0	44990	388	201
0	44996	388	101
0	45054	389	301
0	45078	389	201
0	45098	389	301
0	45115	389	301
0	45129	389	201
0	45138	389	201
0	45147	389	101
0	45154	389	301
0	45160	389	201
0	45166	389	101
0	45172	389	1
0	45240	390	301
0	45260	390	201
0	45281	390	101
0	45296	390	301
0	45310	390	301
0	45319	390	201
0	45326	390	201
0	45332	390	101
0	45338	390	301
0	45344	390	201
0	45350	390	101
0	45356	390	1
0	45414	391	301
0	45435	391	316
0	45446	391	201
0	45458	391	216
0	45473	391	101
0	45485	391	316
0	45496	391	301
0	45506	391	216
0	45517	391	301
0	45526	391	116
0	45532	391	201
0	45541	391	16
0	45547	391	201
0	45554	391	315
0	45560	391	101
0	45566	391	215
0	45572	391	301
0	45578	391	314
0	45584	391	201
0	45590	391	214
0	45596	391	101
0	45602	391	313
0	45608	391	1
0	45614	391	213
0	45621	391	312
0	45627	391	212
0	45633	391	311
0	45639	391	211
0	45645	391	310
0	45651	391	210
0	45657	391	309
0	45663	391	209
0	45669	391	308
0	45675	391	208
0	45681	391	307
0	45687	391	207
0	45693	391	306
0	45699	391	206
0	45705	391	106
0	45711	391	305
0	45717	391	205
0	45723	391	105
0	45729	391	304
0	45735	391	204
0	45741	391	104
0	45747	391	303
0	45753	391	203
0	45759	391	103
0	45816	392	301
0	45843	392	201
0	45864	392	101
0	45881	392	301
0	45896	392	301
0	45905	392	201
0	45914	392	201
0	45921	392	101
0	45927	392	301
0	45933	392	201
0	45939	392	101
0	45945	392	1
0	45985	393	301
0	46008	393	201
0	46028	393	101
0	46039	393	301
0	46046	393	301
0	46052	393	201
0	46058	393	201
0	46064	393	101
0	46070	393	301
0	46076	393	201
0	46082	393	101
0	46088	393	1
0	46118	394	301
0	46136	394	101
0	46145	394	101
0	46158	394	1
0	46167	394	301
0	46179	394	101
0	46209	395	301
0	46229	395	101
0	46246	395	301
0	46256	395	101
0	46263	395	101
0	46269	395	1
0	46300	396	301
0	46319	396	101
0	46335	396	301
0	46345	396	101
0	46352	396	101
0	46358	396	1
0	46443	397	301
0	46466	397	101
0	46483	397	301
0	46502	397	101
0	46519	397	101
0	46538	397	1
0	46784	398	301
0	46798	398	305
0	46812	398	305
0	46821	398	205
0	46837	398	205
0	46844	398	304
0	46858	398	304
0	46864	398	204
0	46876	398	204
0	46882	398	303
0	46891	398	303
0	46897	398	203
0	46906	398	203
0	46912	398	302
0	46919	398	302
0	46925	398	202
0	46931	398	202
0	46937	398	301
0	46943	398	201
0	46949	398	201
0	46955	398	101
0	46962	398	301
0	46968	398	305
0	46974	398	205
0	46980	398	304
0	46986	398	204
0	46992	398	303
0	46998	398	203
0	47004	398	302
0	47010	398	202
0	47016	398	201
0	47022	398	101
0	47028	398	305
0	47034	398	205
0	47040	398	304
0	47046	398	204
0	47052	398	303
0	47058	398	203
0	47064	398	302
0	47070	398	202
0	47076	398	301
0	47082	398	201
0	47088	398	101
0	47094	398	1
0	47155	399	301
0	47169	399	301
0	47184	399	201
0	47193	399	201
0	47209	399	101
0	47225	399	301
0	47237	399	201
0	47246	399	101
0	47255	399	301
0	47262	399	201
0	47268	399	101
0	47274	399	1
0	47335	400	301
0	47347	400	301
0	47363	400	201
0	47372	400	201
0	47388	400	101
0	47404	400	301
0	47416	400	201
0	47425	400	101
0	47434	400	301
0	47441	400	201
0	47447	400	101
0	47453	400	1
0	47513	401	301
0	47526	401	301
0	47542	401	201
0	47551	401	201
0	47567	401	101
0	47583	401	301
0	47595	401	201
0	47604	401	101
0	47613	401	301
0	47620	401	201
0	47626	401	101
0	47632	401	1
0	47684	402	301
0	47701	402	301
0	47714	402	201
0	47726	402	201
0	47739	402	101
0	47755	402	301
0	47767	402	201
0	47776	402	101
0	47785	402	301
0	47794	402	201
0	47801	402	101
0	47807	402	1
0	47884	403	301
0	47896	403	301
0	47912	403	201
0	47921	403	201
0	47936	403	101
0	47954	403	301
0	47972	403	201
0	47989	403	101
0	48007	403	301
0	48022	403	201
0	48033	403	101
0	48042	403	1
0	48168	404	302
0	48180	404	404
0	48196	404	404
0	48205	404	403
0	48220	404	403
0	48229	404	402
0	48243	404	402
0	48250	404	401
0	48265	404	401
0	48271	404	301
0	48281	404	301
0	48287	404	201
0	48296	404	201
0	48306	404	101
0	48315	404	302
0	48322	404	404
0	48328	404	403
0	48334	404	402
0	48340	404	401
0	48346	404	301
0	48352	404	201
0	48358	404	101
0	48364	404	404
0	48370	404	403
0	48376	404	402
0	48382	404	401
0	48388	404	301
0	48394	404	201
0	48400	404	101
0	48406	404	1
0	48465	405	401
0	48484	405	401
0	48495	405	301
0	48506	405	301
0	48515	405	201
0	48524	405	201
0	48533	405	101
0	48542	405	401
0	48548	405	301
0	48554	405	201
0	48560	405	101
0	48566	405	401
0	48572	405	301
0	48578	405	201
0	48584	405	101
0	48590	405	1
0	48637	406	401
0	48658	406	401
0	48669	406	301
0	48680	406	301
0	48689	406	201
0	48698	406	201
0	48707	406	401
0	48716	406	301
0	48722	406	201
0	48728	406	1
0	48778	407	401
0	48800	407	401
0	48811	407	301
0	48822	407	301
0	48831	407	201
0	48840	407	201
0	48847	407	401
0	48857	407	301
0	48864	407	201
0	48870	407	1
0	48917	408	401
0	48938	408	401
0	48950	408	301
0	48962	408	301
0	48971	408	201
0	48980	408	201
0	48987	408	401
0	48997	408	301
0	49004	408	201
0	49010	408	1
0	49055	409	401
0	49079	409	301
0	49094	409	201
0	49104	409	401
0	49113	409	401
0	49120	409	301
0	49126	409	301
0	49132	409	201
0	49138	409	201
0	49144	409	1
0	49200	410	401
0	49214	410	401
0	49233	410	301
0	49242	410	301
0	49254	410	201
0	49263	410	201
0	49270	410	401
0	49280	410	401
0	49287	410	301
0	49293	410	301
0	49299	410	201
0	49305	410	201
0	49311	410	1
0	49452	411	401
0	49466	411	401
0	49484	411	301
0	49493	411	301
0	49509	411	201
0	49518	411	201
0	49532	411	401
0	49552	411	401
0	49569	411	301
0	49588	411	301
0	49605	411	201
0	49624	411	201
0	49641	411	1
0	50253	412	401
0	50266	412	401
0	50283	412	301
0	50292	412	301
0	50308	412	201
0	50317	412	201
0	50331	412	407
0	50340	412	407
0	50354	412	307
0	50363	412	307
0	50370	412	207
0	50379	412	207
0	50385	412	107
0	50394	412	107
0	50400	412	406
0	50409	412	406
0	50415	412	306
0	50424	412	306
0	50430	412	206
0	50437	412	206
0	50443	412	106
0	50449	412	106
0	50455	412	405
0	50461	412	405
0	50467	412	305
0	50473	412	305
0	50479	412	205
0	50485	412	205
0	50491	412	105
0	50497	412	105
0	50503	412	404
0	50509	412	404
0	50515	412	304
0	50521	412	304
0	50527	412	204
0	50533	412	204
0	50539	412	104
0	50545	412	104
0	50551	412	403
0	50557	412	403
0	50563	412	303
0	50569	412	303
0	50575	412	203
0	50581	412	203
0	50587	412	103
0	50593	412	103
0	50599	412	402
0	50605	412	402
0	50611	412	302
0	50617	412	302
0	50623	412	202
0	50629	412	202
0	50635	412	102
0	50641	412	102
0	50647	412	101
0	50653	412	101
0	50659	412	401
0	50666	412	401
0	50672	412	301
0	50678	412	301
0	50684	412	201
0	50690	412	201
0	50696	412	407
0	50702	412	407
0	50708	412	307
0	50714	412	307
0	50720	412	207
0	50726	412	207
0	50732	412	107
0	50738	412	107
0	50744	412	406
0	50750	412	406
0	50756	412	306
0	50762	412	306
0	50768	412	206
0	50774	412	206
0	50780	412	106
0	50786	412	106
0	50792	412	405
0	50798	412	405
0	50804	412	305
0	50810	412	305
0	50816	412	205
0	50822	412	205
0	50828	412	105
0	50834	412	105
0	50840	412	404
0	50846	412	404
0	50852	412	304
0	50858	412	304
0	50864	412	204
0	50870	412	204
0	50876	412	104
0	50882	412	104
0	50888	412	403
0	50894	412	403
0	50900	412	303
0	50906	412	303
0	50912	412	203
0	50918	412	203
0	50924	412	103
0	50930	412	103
0	50936	412	402
0	50942	412	402
0	50948	412	302
0	50954	412	302
0	50960	412	202
0	50966	412	202
0	50972	412	102
0	50978	412	102
0	50984	412	101
0	50990	412	101
0	50996	412	407
0	51002	412	307
0	51008	412	207
0	51014	412	107
0	51020	412	406
0	51026	412	306
0	51032	412	206
0	51038	412	106
0	51044	412	405
0	51050	412	305
0	51056	412	205
0	51062	412	105
0	51068	412	404
0	51074	412	304
0	51080	412	204
0	51086	412	104
0	51092	412	403
0	51098	412	303
0	51104	412	203
0	51110	412	103
0	51116	412	402
0	51122	412	302
0	51128	412	202
0	51134	412	102
0	51140	412	401
0	51146	412	301
0	51152	412	201
0	51158	412	101
0	51164	412	1
0	51243	413	401
0	51255	413	401
0	51273	413	301
0	51282	413	301
0	51298	413	201
0	51305	413	201
0	51315	413	101
0	51321	413	101
0	51330	413	401
0	51340	413	401
0	51347	413	301
0	51353	413	301
0	51359	413	201
0	51365	413	201
0	51371	413	101
0	51377	413	101
0	51383	413	401
0	51389	413	301
0	51395	413	201
0	51401	413	101
0	51407	413	1
0	51468	414	201
0	51476	414	201
0	51497	414	101
0	51503	414	101
0	51520	414	201
0	51540	414	201
0	51557	414	101
0	51576	414	101
0	51591	414	201
0	51603	414	101
0	51610	414	1
0	51691	415	402
0	51699	415	402
0	51720	415	302
0	51726	415	302
0	51743	415	401
0	51749	415	401
0	51768	415	301
0	51774	415	301
0	51789	415	201
0	51795	415	201
0	51807	415	402
0	51813	415	101
0	51820	415	402
0	51827	415	302
0	51833	415	302
0	51839	415	401
0	51845	415	401
0	51851	415	301
0	51857	415	301
0	51863	415	201
0	51869	415	201
0	51875	415	101
0	51881	415	101
0	51887	415	1
0	51950	416	401
0	51958	416	401
0	51979	416	301
0	51985	416	301
0	52002	416	201
0	52008	416	201
0	52027	416	401
0	52033	416	101
0	52048	416	401
0	52061	416	301
0	52068	416	301
0	52074	416	201
0	52080	416	201
0	52086	416	101
0	52092	416	101
0	52098	416	1
0	52162	417	401
0	52170	417	401
0	52190	417	301
0	52196	417	301
0	52213	417	201
0	52219	417	201
0	52238	417	401
0	52244	417	101
0	52259	417	401
0	52272	417	301
0	52279	417	301
0	52285	417	201
0	52291	417	201
0	52297	417	101
0	52303	417	101
0	52309	417	1
0	52373	418	401
0	52381	418	401
0	52402	418	301
0	52408	418	301
0	52426	418	201
0	52432	418	201
0	52451	418	401
0	52457	418	101
0	52473	418	401
0	52486	418	301
0	52493	418	301
0	52499	418	201
0	52505	418	201
0	52511	418	101
0	52517	418	101
0	52523	418	1
0	52594	419	401
0	52602	419	401
0	52622	419	301
0	52628	419	301
0	52645	419	201
0	52651	419	201
0	52671	419	101
0	52677	419	101
0	52692	419	401
0	52706	419	401
0	52713	419	301
0	52719	419	301
0	52725	419	201
0	52731	419	201
0	52737	419	101
0	52743	419	101
0	52749	419	1
0	52876	420	420
0	52884	420	420
0	52904	420	419
0	52910	420	419
0	52927	420	418
0	52933	420	418
0	52953	420	417
0	52959	420	417
0	52974	420	416
0	52980	420	416
0	52993	420	415
0	52999	420	415
0	53006	420	414
0	53012	420	414
0	53018	420	413
0	53024	420	413
0	53030	420	412
0	53036	420	412
0	53042	420	411
0	53048	420	411
0	53054	420	410
0	53060	420	410
0	53066	420	409
0	53072	420	409
0	53078	420	408
0	53084	420	408
0	53090	420	407
0	53096	420	407
0	53102	420	406
0	53108	420	406
0	53114	420	405
0	53120	420	405
0	53126	420	404
0	53132	420	404
0	53138	420	403
0	53144	420	403
0	53150	420	402
0	53156	420	402
0	53162	420	401
0	53168	420	401
0	53174	420	301
0	53180	420	301
0	53186	420	201
0	53192	420	201
0	53198	420	101
0	53204	420	101
0	53210	420	401
0	53217	420	401
0	53223	420	301
0	53229	420	301
0	53235	420	201
0	53241	420	201
0	53247	420	101
0	53253	420	101
0	53259	420	1
0	53329	421	401
0	53337	421	401
0	53357	421	301
0	53363	421	301
0	53380	421	201
0	53386	421	201
0	53406	421	101
0	53412	421	101
0	53427	421	401
0	53441	421	401
0	53448	421	301
0	53454	421	301
0	53460	421	201
0	53466	421	201
0	53472	421	101
0	53478	421	101
0	53484	421	1
0	53666	422	415
0	53692	422	315
0	53715	422	414
0	53740	422	314
0	53761	422	413
0	53779	422	313
0	53792	422	412
0	53803	422	312
0	53815	422	411
0	53826	422	311
0	53838	422	410
0	53849	422	310
0	53861	422	409
0	53872	422	309
0	53884	422	408
0	53895	422	308
0	53907	422	407
0	53918	422	307
0	53930	422	406
0	53941	422	306
0	53953	422	405
0	53964	422	305
0	53976	422	404
0	53987	422	304
0	53999	422	422
0	54010	422	421
0	54022	422	420
0	54033	422	419
0	54045	422	418
0	54056	422	417
0	54068	422	416
0	54079	422	403
0	54091	422	303
0	54102	422	402
0	54114	422	302
0	54125	422	401
0	54137	422	301
0	54148	422	201
0	54160	422	101
0	54171	422	415
0	54183	422	315
0	54194	422	414
0	54206	422	314
0	54217	422	413
0	54229	422	313
0	54240	422	412
0	54252	422	312
0	54263	422	411
0	54271	422	311
0	54277	422	410
0	54283	422	310
0	54289	422	409
0	54295	422	309
0	54301	422	408
0	54307	422	308
0	54313	422	407
0	54319	422	307
0	54325	422	406
0	54331	422	306
0	54337	422	405
0	54343	422	305
0	54349	422	404
0	54355	422	304
0	54361	422	422
0	54367	422	421
0	54373	422	420
0	54379	422	419
0	54385	422	418
0	54391	422	417
0	54397	422	416
0	54403	422	403
0	54409	422	303
0	54415	422	402
0	54421	422	302
0	54427	422	401
0	54433	422	301
0	54439	422	201
0	54445	422	101
0	54451	422	401
0	54457	422	401
0	54463	422	301
0	54469	422	301
0	54475	422	201
0	54481	422	201
0	54487	422	101
0	54493	422	101
0	54499	422	1
0	54564	423	401
0	54580	423	301
0	54595	423	201
0	54607	423	101
0	54619	423	401
0	54630	423	301
0	54642	423	201
0	54653	423	101
0	54665	423	401
0	54676	423	401
0	54688	423	301
0	54699	423	301
0	54711	423	201
0	54718	423	201
0	54724	423	101
0	54730	423	101
0	54736	423	1
0	54777	424	401
0	54793	424	301
0	54808	424	101
0	54820	424	401
0	54832	424	301
0	54843	424	101
0	54851	424	401
0	54857	424	301
0	54863	424	101
0	54901	425	401
0	54918	425	301
0	54935	425	101
0	54947	425	401
0	54959	425	301
0	54970	425	101
0	54978	425	401
0	54984	425	301
0	54990	425	101
0	55015	426	401
0	55033	426	301
0	55050	426	101
0	55058	426	101
0	55064	426	401
0	55070	426	301
0	55076	426	101
0	55104	427	401
0	55128	427	301
0	55151	427	101
0	55167	427	101
0	55181	427	401
0	55196	427	301
0	55210	427	101
0	55294	428	401
0	55305	428	401
0	55318	428	301
0	55333	428	301
0	55340	428	101
0	55350	428	101
0	55360	428	101
0	55367	428	105
0	55373	428	5
0	55379	428	104
0	55385	428	4
0	55391	428	103
0	55397	428	3
0	55403	428	102
0	55409	428	2
0	55415	428	101
0	55421	428	1
0	55502	429	401
0	55517	429	401
0	55531	429	301
0	55546	429	301
0	55553	429	101
0	55563	429	101
0	55573	429	101
0	55582	429	101
0	55591	429	1
0	55945	430	401
0	55960	430	417
0	55974	430	301
0	55989	430	317
0	55996	430	101
0	56006	430	416
0	56016	430	316
0	56025	430	216
0	56032	430	415
0	56038	430	315
0	56044	430	215
0	56050	430	414
0	56056	430	314
0	56062	430	214
0	56068	430	413
0	56074	430	313
0	56080	430	213
0	56086	430	412
0	56092	430	312
0	56098	430	212
0	56104	430	430
0	56110	430	429
0	56116	430	428
0	56122	430	427
0	56128	430	426
0	56134	430	425
0	56140	430	424
0	56146	430	423
0	56152	430	422
0	56158	430	421
0	56164	430	420
0	56170	430	419
0	56176	430	418
0	56182	430	411
0	56188	430	311
0	56194	430	211
0	56200	430	410
0	56206	430	310
0	56212	430	210
0	56218	430	409
0	56224	430	309
0	56230	430	209
0	56236	430	408
0	56242	430	308
0	56248	430	208
0	56254	430	407
0	56260	430	307
0	56266	430	406
0	56272	430	306
0	56278	430	405
0	56284	430	305
0	56290	430	404
0	56296	430	304
0	56302	430	403
0	56308	430	303
0	56314	430	402
0	56320	430	302
0	56326	430	401
0	56332	430	301
0	56338	430	101
0	56344	430	417
0	56350	430	317
0	56356	430	416
0	56362	430	316
0	56368	430	216
0	56374	430	415
0	56380	430	315
0	56386	430	215
0	56392	430	414
0	56398	430	314
0	56404	430	214
0	56410	430	413
0	56416	430	313
0	56422	430	213
0	56428	430	412
0	56434	430	312
0	56440	430	212
0	56446	430	430
0	56452	430	429
0	56458	430	428
0	56464	430	427
0	56470	430	426
0	56476	430	425
0	56482	430	424
0	56488	430	423
0	56494	430	422
0	56500	430	421
0	56506	430	420
0	56512	430	419
0	56518	430	418
0	56524	430	411
0	56530	430	311
0	56536	430	211
0	56542	430	410
0	56548	430	310
0	56554	430	210
0	56560	430	409
0	56566	430	309
0	56572	430	209
0	56578	430	408
0	56584	430	308
0	56590	430	208
0	56596	430	407
0	56602	430	307
0	56608	430	406
0	56614	430	306
0	56620	430	405
0	56626	430	305
0	56632	430	404
0	56638	430	304
0	56644	430	403
0	56650	430	303
0	56656	430	402
0	56662	430	302
0	56668	430	401
0	56674	430	301
0	56680	430	101
0	56686	430	101
0	56692	430	1
0	56730	431	401
0	56748	431	401
0	56761	431	301
0	56777	431	301
0	56786	431	101
0	56794	431	101
0	56804	431	401
0	56813	431	301
0	56822	431	101
0	56831	431	101
0	56840	431	1
0	56880	432	401
0	56901	432	401
0	56913	432	301
0	56929	432	101
0	56941	432	301
0	56950	432	401
0	56959	432	101
0	56968	432	301
0	56977	432	401
0	56986	432	101
0	56993	432	301
0	56999	432	1
0	57036	433	401
0	57059	433	401
0	57069	433	301
0	57085	433	101
0	57097	433	301
0	57106	433	401
0	57115	433	101
0	57124	433	301
0	57133	433	401
0	57142	433	101
0	57149	433	301
0	57155	433	1
0	57195	434	401
0	57218	434	401
0	57231	434	301
0	57247	434	101
0	57260	434	301
0	57269	434	401
0	57278	434	101
0	57287	434	301
0	57296	434	401
0	57305	434	101
0	57312	434	301
0	57318	434	1
0	57384	435	401
0	57393	435	342
0	57420	435	301
0	57426	435	341
0	57446	435	340
0	57458	435	339
0	57467	435	338
0	57476	435	337
0	57485	435	336
0	57494	435	335
0	57501	435	334
0	57507	435	333
0	57513	435	435
0	57519	435	434
0	57525	435	433
0	57531	435	432
0	57537	435	332
0	57543	435	431
0	57549	435	331
0	57555	435	430
0	57561	435	330
0	57567	435	429
0	57573	435	329
0	57579	435	404
0	57585	435	304
0	57591	435	403
0	57597	435	303
0	57603	435	402
0	57609	435	302
0	57615	435	401
0	57621	435	301
0	57627	435	101
0	57633	435	401
0	57639	435	101
0	57645	435	301
0	57651	435	401
0	57657	435	101
0	57663	435	301
0	57669	435	1
0	57707	436	401
0	57716	436	401
0	57743	436	301
0	57762	436	101
0	57773	436	401
0	57782	436	101
0	57791	436	301
0	57800	436	401
0	57809	436	101
0	57816	436	301
0	57822	436	1
0	57859	437	401
0	57868	437	401
0	57895	437	301
0	57914	437	101
0	57925	437	401
0	57934	437	101
0	57943	437	301
0	57952	437	401
0	57961	437	101
0	57968	437	301
0	57974	437	1
0	58008	438	401
0	58034	438	301
0	58053	438	101
0	58064	438	401
0	58073	438	101
0	58082	438	301
0	58091	438	401
0	58100	438	101
0	58107	438	301
0	58113	438	1
0	58147	439	401
0	58173	439	301
0	58192	439	101
0	58203	439	401
0	58212	439	101
0	58221	439	301
0	58230	439	401
0	58239	439	101
0	58246	439	301
0	58252	439	1
0	58289	440	401
0	58317	440	301
0	58336	440	101
0	58347	440	401
0	58356	440	101
0	58365	440	301
0	58374	440	401
0	58383	440	101
0	58390	440	301
0	58396	440	1
0	58430	441	401
0	58456	441	301
0	58475	441	101
0	58486	441	401
0	58495	441	101
0	58504	441	301
0	58513	441	401
0	58522	441	101
0	58529	441	301
0	58535	441	1
0	58570	442	401
0	58595	442	301
0	58614	442	101
0	58625	442	401
0	58634	442	101
0	58643	442	301
0	58652	442	401
0	58661	442	101
0	58668	442	301
0	58674	442	1
0	58705	443	401
0	58722	443	301
0	58736	443	101
0	58746	443	401
0	58753	443	101
0	58759	443	301
0	58765	443	401
0	58771	443	101
0	58777	443	301
0	58783	443	1
0	58843	444	413
0	58855	444	413
0	58871	444	412
0	58877	444	412
0	58891	444	411
0	58897	444	411
0	58907	444	410
0	58913	444	410
0	58920	444	409
0	58926	444	409
0	58932	444	408
0	58938	444	408
0	58944	444	407
0	58950	444	407
0	58956	444	406
0	58962	444	406
0	58968	444	405
0	58974	444	405
0	58980	444	404
0	58986	444	404
0	58992	444	403
0	58998	444	403
0	59004	444	402
0	59010	444	402
0	59016	444	401
0	59022	444	401
0	59028	444	301
0	59034	444	301
0	59041	444	101
0	59047	444	101
0	59053	444	101
0	59059	444	1
0	59105	445	401
0	59120	445	401
0	59134	445	301
0	59143	445	301
0	59154	445	101
0	59163	445	101
0	59175	445	101
0	59184	445	101
0	59193	445	1
0	59745	446	401
0	59768	446	401
0	59784	446	301
0	59799	446	301
0	59810	446	415
0	59824	446	415
0	59836	446	414
0	59850	446	414
0	59861	446	413
0	59876	446	413
0	59887	446	412
0	59901	446	412
0	59913	446	411
0	59927	446	411
0	59938	446	410
0	59953	446	410
0	59964	446	409
0	59978	446	409
0	59990	446	408
0	60004	446	408
0	60015	446	407
0	60030	446	407
0	60041	446	406
0	60055	446	406
0	60067	446	405
0	60081	446	405
0	60092	446	404
0	60107	446	404
0	60118	446	403
0	60132	446	403
0	60144	446	303
0	60158	446	303
0	60169	446	402
0	60184	446	402
0	60195	446	302
0	60209	446	302
0	60221	446	101
0	60235	446	101
0	60256	446	415
0	60275	446	414
0	60295	446	413
0	60315	446	412
0	60334	446	411
0	60354	446	410
0	60374	446	409
0	60393	446	408
0	60413	446	407
0	60433	446	406
0	60452	446	405
0	60472	446	404
0	60492	446	403
0	60511	446	303
0	60531	446	402
0	60551	446	302
0	60570	446	401
0	60590	446	301
0	60610	446	101
0	60629	446	101
0	60649	446	1
0	62308	447	401
0	62335	447	401
0	62346	447	301
0	62361	447	301
0	62372	447	424
0	62386	447	424
0	62398	447	324
0	62408	447	324
0	62419	447	224
0	62428	447	224
0	62436	447	423
0	62445	447	423
0	62451	447	323
0	62460	447	323
0	62466	447	223
0	62475	447	223
0	62481	447	422
0	62490	447	422
0	62496	447	322
0	62505	447	322
0	62511	447	222
0	62520	447	222
0	62526	447	421
0	62535	447	421
0	62541	447	321
0	62548	447	321
0	62554	447	221
0	62560	447	221
0	62566	447	420
0	62572	447	420
0	62578	447	320
0	62584	447	320
0	62590	447	220
0	62596	447	220
0	62602	447	419
0	62608	447	419
0	62614	447	319
0	62620	447	319
0	62626	447	219
0	62632	447	219
0	62638	447	418
0	62644	447	418
0	62650	447	318
0	62656	447	318
0	62662	447	218
0	62668	447	218
0	62674	447	417
0	62680	447	417
0	62686	447	317
0	62692	447	317
0	62698	447	217
0	62704	447	217
0	62710	447	416
0	62716	447	416
0	62722	447	316
0	62728	447	316
0	62734	447	216
0	62740	447	216
0	62746	447	415
0	62752	447	415
0	62758	447	315
0	62764	447	315
0	62770	447	215
0	62776	447	215
0	62782	447	414
0	62788	447	414
0	62794	447	314
0	62800	447	314
0	62806	447	214
0	62812	447	214
0	62818	447	413
0	62824	447	413
0	62830	447	313
0	62836	447	313
0	62842	447	213
0	62848	447	213
0	62854	447	412
0	62860	447	412
0	62866	447	312
0	62872	447	312
0	62878	447	212
0	62884	447	212
0	62890	447	411
0	62896	447	411
0	62902	447	311
0	62908	447	311
0	62914	447	211
0	62920	447	211
0	62926	447	410
0	62932	447	410
0	62938	447	310
0	62944	447	310
0	62950	447	210
0	62956	447	210
0	62962	447	409
0	62968	447	409
0	62974	447	309
0	62980	447	309
0	62986	447	209
0	62992	447	209
0	62998	447	408
0	63004	447	408
0	63010	447	308
0	63016	447	308
0	63022	447	208
0	63028	447	208
0	63034	447	407
0	63040	447	407
0	63046	447	307
0	63052	447	307
0	63058	447	207
0	63064	447	207
0	63070	447	406
0	63076	447	406
0	63082	447	306
0	63088	447	306
0	63094	447	206
0	63100	447	206
0	63106	447	405
0	63112	447	405
0	63118	447	305
0	63124	447	305
0	63130	447	205
0	63136	447	205
0	63142	447	404
0	63148	447	404
0	63154	447	304
0	63160	447	304
0	63166	447	204
0	63172	447	204
0	63178	447	403
0	63184	447	403
0	63190	447	303
0	63196	447	303
0	63202	447	203
0	63208	447	203
0	63214	447	402
0	63220	447	402
0	63226	447	302
0	63232	447	302
0	63238	447	202
0	63244	447	202
0	63250	447	201
0	63256	447	201
0	63262	447	101
0	63268	447	101
0	63275	447	424
0	63281	447	424
0	63287	447	324
0	63293	447	324
0	63299	447	224
0	63305	447	224
0	63311	447	423
0	63317	447	423
0	63323	447	323
0	63329	447	323
0	63335	447	223
0	63341	447	223
0	63347	447	422
0	63353	447	422
0	63359	447	322
0	63365	447	322
0	63371	447	222
0	63377	447	222
0	63383	447	421
0	63389	447	421
0	63395	447	321
0	63401	447	321
0	63407	447	221
0	63413	447	221
0	63419	447	420
0	63425	447	420
0	63431	447	320
0	63437	447	320
0	63443	447	220
0	63449	447	220
0	63455	447	419
0	63461	447	419
0	63467	447	319
0	63473	447	319
0	63479	447	219
0	63485	447	219
0	63491	447	418
0	63497	447	418
0	63503	447	318
0	63509	447	318
0	63515	447	218
0	63521	447	218
0	63527	447	417
0	63533	447	417
0	63539	447	317
0	63545	447	317
0	63551	447	217
0	63557	447	217
0	63563	447	416
0	63569	447	416
0	63575	447	316
0	63581	447	316
0	63587	447	216
0	63593	447	216
0	63599	447	415
0	63605	447	415
0	63611	447	315
0	63617	447	315
0	63623	447	215
0	63629	447	215
0	63635	447	414
0	63641	447	414
0	63647	447	314
0	63653	447	314
0	63659	447	214
0	63665	447	214
0	63671	447	413
0	63677	447	413
0	63683	447	313
0	63689	447	313
0	63695	447	213
0	63701	447	213
0	63707	447	412
0	63713	447	412
0	63719	447	312
0	63725	447	312
0	63731	447	212
0	63737	447	212
0	63743	447	411
0	63749	447	411
0	63755	447	311
0	63761	447	311
0	63767	447	211
0	63773	447	211
0	63779	447	410
0	63785	447	410
0	63791	447	310
0	63797	447	310
0	63803	447	210
0	63809	447	210
0	63815	447	409
0	63821	447	409
0	63827	447	309
0	63833	447	309
0	63839	447	209
0	63845	447	209
0	63851	447	408
0	63857	447	408
0	63863	447	308
0	63869	447	308
0	63875	447	208
0	63881	447	208
0	63887	447	407
0	63893	447	407
0	63899	447	307
0	63905	447	307
0	63911	447	207
0	63917	447	207
0	63923	447	406
0	63929	447	406
0	63935	447	306
0	63941	447	306
0	63947	447	206
0	63953	447	206
0	63959	447	405
0	63965	447	405
0	63971	447	305
0	63977	447	305
0	63983	447	205
0	63989	447	205
0	63995	447	404
0	64001	447	404
0	64007	447	304
0	64013	447	304
0	64019	447	204
0	64025	447	204
0	64031	447	403
0	64037	447	403
0	64043	447	303
0	64049	447	303
0	64055	447	203
0	64061	447	203
0	64067	447	402
0	64073	447	402
0	64079	447	302
0	64085	447	302
0	64091	447	202
0	64097	447	202
0	64103	447	401
0	64109	447	401
0	64115	447	301
0	64121	447	301
0	64127	447	201
0	64133	447	201
0	64139	447	101
0	64145	447	1
0	64217	448	401
0	64249	448	301
0	64269	448	201
0	64289	448	101
0	64397	449	401
0	64415	449	301
0	64430	449	201
0	64444	449	101
0	64529	450	401
0	64547	450	301
0	64562	450	201
0	64576	450	101
0	64657	451	401
0	64679	451	404
0	64685	451	301
0	64700	451	304
0	64706	451	201
0	64720	451	204
0	64726	451	101
0	64741	451	104
0	64756	451	404
0	64767	451	404
0	64776	451	304
0	64785	451	304
0	64794	451	204
0	64801	451	204
0	64807	451	104
0	64813	451	4
0	64819	451	403
0	64825	451	303
0	64831	451	203
0	64837	451	103
0	64843	451	403
0	64849	451	403
0	64855	451	303
0	64861	451	303
0	64867	451	203
0	64873	451	203
0	64879	451	103
0	64885	451	3
0	64891	451	402
0	64897	451	302
0	64903	451	202
0	64909	451	102
0	64915	451	402
0	64921	451	302
0	64927	451	202
0	64933	451	102
0	64939	451	2
0	64945	451	401
0	64951	451	301
0	64957	451	201
0	64963	451	101
0	64969	451	401
0	64975	451	301
0	64981	451	201
0	64987	451	101
0	64993	451	1
0	65059	452	401
0	65081	452	401
0	65092	452	301
0	65107	452	301
0	65118	452	201
0	65132	452	201
0	65144	452	101
0	65158	452	101
0	65179	452	401
0	65194	452	301
0	65205	452	201
0	65214	452	101
0	65223	452	1
0	65314	453	401
0	65330	453	401
0	65342	453	301
0	65351	453	301
0	65364	453	201
0	65373	453	201
0	65384	453	101
0	65393	453	101
0	65410	453	401
0	65420	453	404
0	65429	453	301
0	65438	453	304
0	65447	453	201
0	65454	453	204
0	65460	453	101
0	65466	453	403
0	65472	453	1
0	65478	453	303
0	65484	453	203
0	65548	454	401
0	65563	454	405
0	65577	454	301
0	65586	454	305
0	65600	454	201
0	65609	454	205
0	65620	454	101
0	65629	454	404
0	65647	454	304
0	65657	454	204
0	65666	454	401
0	65675	454	301
0	65684	454	201
0	65691	454	101
0	65697	454	401
0	65703	454	301
0	65709	454	201
0	65715	454	101
0	65721	454	1
0	65777	455	401
0	65792	455	401
0	65805	455	301
0	65814	455	301
0	65827	455	201
0	65836	455	201
0	65847	455	101
0	65856	455	101
0	65873	455	401
0	65883	455	301
0	65892	455	201
0	65901	455	101
0	65910	455	1
0	65966	456	401
0	65981	456	401
0	65994	456	301
0	66003	456	301
0	66016	456	201
0	66025	456	201
0	66036	456	101
0	66045	456	101
0	66062	456	401
0	66072	456	301
0	66081	456	201
0	66090	456	101
0	66099	456	1
0	66156	457	401
0	66172	457	401
0	66185	457	301
0	66194	457	301
0	66207	457	201
0	66216	457	201
0	66227	457	101
0	66236	457	101
0	66253	457	401
0	66263	457	301
0	66272	457	201
0	66281	457	101
0	66290	457	1
0	66345	458	401
0	66360	458	401
0	66373	458	301
0	66382	458	301
0	66395	458	201
0	66404	458	201
0	66415	458	101
0	66424	458	101
0	66441	458	401
0	66451	458	301
0	66460	458	201
0	66469	458	101
0	66478	458	1
0	66533	459	401
0	66548	459	401
0	66561	459	301
0	66570	459	301
0	66583	459	201
0	66592	459	201
0	66603	459	101
0	66612	459	101
0	66629	459	401
0	66639	459	301
0	66648	459	201
0	66657	459	101
0	66666	459	1
0	66721	460	401
0	66736	460	401
0	66749	460	301
0	66758	460	301
0	66771	460	201
0	66780	460	201
0	66791	460	101
0	66800	460	101
0	66817	460	401
0	66827	460	301
0	66836	460	201
0	66845	460	101
0	66854	460	1
0	66910	461	401
0	66926	461	401
0	66939	461	301
0	66948	461	301
0	66961	461	201
0	66970	461	201
0	66981	461	101
0	66990	461	101
0	67007	461	401
0	67017	461	301
0	67026	461	201
0	67035	461	101
0	67044	461	1
0	67101	462	401
0	67118	462	401
0	67131	462	301
0	67140	462	301
0	67154	462	201
0	67163	462	201
0	67174	462	101
0	67183	462	101
0	67201	462	401
0	67211	462	301
0	67220	462	201
0	67229	462	101
0	67238	462	1
0	67296	463	401
0	67312	463	420
0	67326	463	301
0	67335	463	401
0	67349	463	201
0	67358	463	301
0	67369	463	101
0	67378	463	201
0	67396	463	101
0	67406	463	401
0	67415	463	301
0	67424	463	201
0	67433	463	101
0	67440	463	1
0	67511	464	401
0	67532	464	301
0	67556	464	201
0	67575	464	101
0	67595	464	401
0	67605	464	301
0	67614	464	201
0	67623	464	101
0	67632	464	1
0	67639	464	401
0	67645	464	301
0	67651	464	201
0	67657	464	101
0	67728	465	401
0	67750	465	301
0	67773	465	201
0	67792	465	401
0	67811	465	301
0	67821	465	201
0	67830	465	101
0	67839	465	401
0	67848	465	301
0	67855	465	201
0	67861	465	101
0	67867	465	1
0	67873	465	401
0	67879	465	301
0	67885	465	201
0	67891	465	101
0	67968	466	401
0	67989	466	301
0	68012	466	201
0	68031	466	101
0	68050	466	401
0	68060	466	301
0	68069	466	201
0	68078	466	101
0	68087	466	401
0	68094	466	301
0	68100	466	201
0	68106	466	101
0	68112	466	1
0	68118	466	401
0	68124	466	301
0	68130	466	201
0	68136	466	101
0	68214	467	401
0	68236	467	301
0	68259	467	201
0	68278	467	101
0	68297	467	401
0	68307	467	301
0	68316	467	201
0	68325	467	101
0	68334	467	401
0	68341	467	301
0	68347	467	201
0	68353	467	101
0	68359	467	1
0	68365	467	401
0	68371	467	301
0	68377	467	201
0	68383	467	101
0	68438	468	401
0	68465	468	301
0	68488	468	201
0	68507	468	101
0	68530	468	401
0	68541	468	301
0	68548	468	201
0	68554	468	101
0	68560	468	401
0	68566	468	301
0	68572	468	201
0	68578	468	101
0	68584	468	1
0	68590	468	401
0	68596	468	301
0	68602	468	201
0	68608	468	101
0	68655	469	401
0	68683	469	301
0	68716	469	201
0	68740	469	101
0	68769	469	402
0	68788	469	401
0	68814	469	301
0	68833	469	201
0	68859	469	101
0	68878	469	402
0	68904	469	401
0	68919	469	301
0	68935	469	201
0	69029	470	401
0	69058	470	301
0	69090	470	201
0	69110	470	101
0	69136	470	401
0	69151	470	301
0	69167	470	201
0	69181	470	101
0	69197	470	402
0	69211	470	302
0	69223	470	202
0	69230	470	102
0	69236	470	2
0	69242	470	401
0	69248	470	301
0	69254	470	201
0	69260	470	101
0	69266	470	1
0	69272	470	401
0	69278	470	301
0	69284	470	201
0	69346	471	401
0	69372	471	301
0	69402	471	201
0	69422	471	101
0	69447	471	401
0	69462	471	301
0	69477	471	201
0	69491	471	101
0	69506	471	401
0	69520	471	301
0	69531	471	201
0	69538	471	101
0	69544	471	1
0	69550	471	401
0	69556	471	301
0	69562	471	201
0	69624	472	401
0	69652	472	301
0	69684	472	201
0	69704	472	101
0	69730	472	401
0	69745	472	301
0	69760	472	201
0	69774	472	101
0	69789	472	401
0	69803	472	301
0	69814	472	201
0	69821	472	101
0	69827	472	1
0	69833	472	401
0	69839	472	301
0	69845	472	201
0	69907	473	401
0	69932	473	301
0	69961	473	201
0	69981	473	101
0	70005	473	401
0	70020	473	301
0	70035	473	201
0	70049	473	101
0	70064	473	401
0	70078	473	301
0	70089	473	201
0	70096	473	101
0	70102	473	1
0	70108	473	401
0	70114	473	301
0	70120	473	201
0	70181	474	401
0	70207	474	301
0	70235	474	201
0	70259	474	101
0	70287	474	401
0	70307	474	301
0	70326	474	201
0	70345	474	401
0	70364	474	301
0	70383	474	201
0	70398	474	101
0	70410	474	401
0	70417	474	301
0	70423	474	201
0	70429	474	101
0	70435	474	1
0	70508	475	410
0	70537	475	310
0	70565	475	409
0	70589	475	309
0	70617	475	408
0	70637	475	308
0	70656	475	407
0	70675	475	307
0	70694	475	406
0	70713	475	306
0	70728	475	405
0	70740	475	305
0	70751	475	404
0	70758	475	304
0	70764	475	403
0	70770	475	303
0	70776	475	402
0	70782	475	302
0	70788	475	401
0	70794	475	301
0	70800	475	201
0	70806	475	101
0	70812	475	401
0	70818	475	301
0	70824	475	201
0	70830	475	401
0	70836	475	301
0	70842	475	201
0	70848	475	101
0	70854	475	401
0	70860	475	301
0	70866	475	201
0	70872	475	101
0	70878	475	1
0	70951	476	401
0	70979	476	301
0	71003	476	201
0	71031	476	401
0	71051	476	301
0	71070	476	201
0	71089	476	101
0	71108	476	401
0	71127	476	301
0	71142	476	201
0	71154	476	101
0	71161	476	1
0	71240	477	401
0	71268	477	301
0	71292	477	201
0	71320	477	101
0	71340	477	401
0	71359	477	301
0	71378	477	201
0	71397	477	101
0	71416	477	401
0	71431	477	301
0	71443	477	201
0	71454	477	101
0	71461	477	1
0	71546	478	401
0	71575	478	301
0	71599	478	201
0	71628	478	101
0	71648	478	401
0	71667	478	301
0	71686	478	201
0	71705	478	101
0	71724	478	401
0	71739	478	301
0	71751	478	201
0	71762	478	101
0	71769	478	1
0	71851	479	401
0	71873	479	301
0	71896	479	201
0	71918	479	101
0	71939	479	401
0	71954	479	301
0	71966	479	201
0	71977	479	101
0	71988	479	401
0	71999	479	301
0	72010	479	201
0	72021	479	101
0	72028	479	1
0	72102	480	401
0	72125	480	301
0	72147	480	201
0	72170	480	101
0	72190	480	401
0	72206	480	301
0	72218	480	201
0	72229	480	101
0	72240	480	401
0	72247	480	301
0	72253	480	201
0	72259	480	101
0	72265	480	1
0	72325	481	401
0	72343	481	401
0	72358	481	301
0	72367	481	301
0	72381	481	201
0	72390	481	201
0	72405	481	101
0	72414	481	101
0	72428	481	401
0	72441	481	301
0	72448	481	201
0	72454	481	101
0	72460	481	1
0	72518	482	401
0	72537	482	401
0	72552	482	301
0	72561	482	301
0	72575	482	201
0	72584	482	201
0	72599	482	101
0	72608	482	101
0	72622	482	401
0	72635	482	301
0	72642	482	201
0	72648	482	101
0	72654	482	1
0	72712	483	401
0	72734	483	401
0	72748	483	301
0	72759	483	301
0	72773	483	201
0	72784	483	201
0	72798	483	101
0	72809	483	101
0	72823	483	401
0	72835	483	301
0	72844	483	201
0	72853	483	101
0	72862	483	1
0	72922	484	401
0	72953	484	301
0	72972	484	201
0	72991	484	101
0	73010	484	401
0	73021	484	401
0	73030	484	301
0	73039	484	301
0	73048	484	201
0	73057	484	201
0	73064	484	101
0	73070	484	101
0	73076	484	1
0	73131	485	401
0	73161	485	301
0	73180	485	201
0	73199	485	101
0	73218	485	401
0	73229	485	401
0	73238	485	301
0	73247	485	301
0	73256	485	201
0	73265	485	201
0	73272	485	101
0	73278	485	101
0	73284	485	1
0	73339	486	401
0	73369	486	301
0	73388	486	201
0	73407	486	101
0	73426	486	401
0	73437	486	401
0	73446	486	301
0	73455	486	301
0	73464	486	201
0	73473	486	201
0	73480	486	101
0	73486	486	101
0	73492	486	1
0	73607	487	401
0	73638	487	301
0	73658	487	201
0	73677	487	101
0	73697	487	401
0	73709	487	401
0	73718	487	301
0	73727	487	301
0	73736	487	201
0	73745	487	201
0	73754	487	101
0	73763	487	101
0	73772	487	1
0	74182	488	401
0	74213	488	301
0	74233	488	201
0	74253	488	420
0	74272	488	320
0	74284	488	220
0	74293	488	419
0	74302	488	319
0	74311	488	101
0	74320	488	219
0	74329	488	418
0	74338	488	318
0	74347	488	218
0	74354	488	417
0	74360	488	317
0	74366	488	217
0	74372	488	416
0	74378	488	316
0	74384	488	216
0	74390	488	415
0	74396	488	315
0	74402	488	215
0	74408	488	414
0	74414	488	314
0	74420	488	214
0	74426	488	413
0	74432	488	313
0	74438	488	213
0	74444	488	412
0	74450	488	312
0	74456	488	212
0	74462	488	411
0	74468	488	311
0	74474	488	211
0	74480	488	410
0	74486	488	310
0	74492	488	210
0	74498	488	409
0	74504	488	309
[...]
0	326156	972	201
0	326168	972	101
0	326177	972	101
0	326192	972	901
0	326203	972	801
0	326212	972	701
0	326221	972	601
0	326230	972	501
0	326239	972	401
0	326248	972	901
0	326257	972	801
0	326266	972	701
0	326275	972	601
0	326284	972	501
0	326293	972	401
0	326302	972	301
0	326311	972	201
0	326320	972	101
0	326329	972	1
0	326474	973	901
0	326496	973	901
0	326508	973	801
0	326522	973	801
0	326534	973	701
0	326548	973	701
0	326559	973	601
0	326574	973	601
0	326585	973	501
0	326599	973	501
0	326611	973	401
0	326625	973	401
0	326636	973	301
0	326651	973	301
0	326662	973	201
0	326676	973	201
0	326688	973	101
0	326702	973	101
0	326719	973	901
0	326729	973	901
0	326738	973	801
0	326747	973	801
0	326756	973	701
0	326765	973	701
0	326774	973	601
0	326783	973	601
0	326792	973	501
0	326801	973	501
0	326810	973	401
0	326819	973	401
0	326828	973	301
0	326837	973	201
0	326846	973	101
0	326855	973	1
0	327013	974	901
0	327035	974	901
0	327047	974	801
0	327061	974	801
0	327073	974	701
0	327087	974	701
0	327098	974	601
0	327113	974	601
0	327124	974	501
0	327138	974	501
0	327150	974	401
0	327164	974	401
0	327175	974	301
0	327190	974	301
0	327201	974	201
0	327215	974	201
0	327227	974	101
0	327241	974	101
0	327258	974	901
0	327268	974	901
0	327277	974	801
0	327286	974	801
0	327295	974	701
0	327304	974	701
0	327313	974	601
0	327322	974	601
0	327331	974	501
0	327340	974	501
0	327349	974	401
0	327358	974	401
0	327367	974	301
0	327376	974	301
0	327385	974	201
0	327394	974	201
0	327403	974	101
0	327412	974	101
0	327421	974	1
0	327576	975	901
0	327600	975	901
0	327612	975	801
0	327626	975	801
0	327641	975	701
0	327655	975	701
0	327666	975	601
0	327684	975	601
0	327695	975	501
0	327709	975	501
0	327724	975	401
0	327738	975	401
0	327749	975	301
0	327767	975	301
0	327778	975	201
0	327792	975	201
0	327807	975	101
0	327821	975	101
0	327841	975	901
0	327851	975	901
0	327860	975	801
0	327869	975	801
0	327878	975	701
0	327887	975	701
0	327896	975	601
0	327905	975	601
0	327914	975	501
0	327923	975	501
0	327932	975	401
0	327941	975	401
0	327950	975	301
0	327959	975	301
0	327968	975	201
0	327977	975	201
0	327986	975	101
0	327995	975	101
0	328004	975	1
0	328155	976	901
0	328179	976	901
0	328191	976	801
0	328205	976	801
0	328220	976	701
0	328234	976	701
0	328245	976	601
0	328263	976	601
0	328274	976	501
0	328288	976	501
0	328303	976	401
0	328317	976	401
0	328328	976	301
0	328346	976	301
0	328357	976	201
0	328371	976	201
0	328386	976	101
0	328400	976	101
0	328420	976	901
0	328430	976	901
0	328439	976	801
0	328448	976	801
0	328457	976	701
0	328466	976	701
0	328475	976	601
0	328484	976	601
0	328493	976	501
0	328502	976	501
0	328511	976	401
0	328520	976	401
0	328529	976	301
0	328538	976	301
0	328547	976	201
0	328556	976	201
0	328565	976	101
0	328574	976	101
0	328583	976	1
0	328733	977	901
0	328756	977	901
0	328768	977	801
0	328782	977	801
0	328797	977	701
0	328811	977	701
0	328822	977	601
0	328840	977	601
0	328851	977	501
0	328865	977	501
0	328880	977	401
0	328894	977	401
0	328905	977	301
0	328923	977	301
0	328934	977	201
0	328948	977	201
0	328963	977	101
0	328977	977	101
0	328997	977	901
0	329007	977	901
0	329016	977	801
0	329025	977	801
0	329034	977	701
0	329043	977	701
0	329052	977	601
0	329061	977	601
0	329070	977	501
0	329079	977	501
0	329088	977	401
0	329097	977	401
0	329106	977	301
0	329115	977	301
0	329124	977	201
0	329133	977	201
0	329142	977	101
0	329151	977	101
0	329160	977	1
0	329280	978	901
0	329300	978	801
0	329318	978	701
0	329332	978	601
0	329350	978	501
0	329364	978	401
0	329382	978	301
0	329396	978	201
0	329414	978	101
0	329428	978	901
0	329442	978	801
0	329451	978	701
0	329460	978	601
0	329469	978	501
0	329478	978	401
0	329487	978	301
0	329496	978	201
0	329505	978	101
0	329514	978	901
0	329521	978	901
0	329527	978	801
0	329533	978	801
0	329539	978	701
0	329545	978	701
0	329551	978	601
0	329557	978	601
0	329563	978	501
0	329569	978	501
0	329575	978	401
0	329581	978	401
0	329587	978	301
0	329593	978	301
0	329599	978	201
0	329605	978	201
0	329611	978	101
0	329617	978	101
0	329623	978	1
0	329702	979	901
0	329722	979	801
0	329736	979	701
0	329753	979	601
0	329767	979	501
0	329784	979	401
0	329798	979	301
0	329815	979	201
0	329829	979	901
0	329846	979	801
0	329860	979	701
0	329873	979	601
0	329882	979	501
0	329891	979	401
0	329900	979	301
0	329909	979	201
0	329918	979	901
0	329927	979	801
0	329936	979	701
0	329943	979	601
0	329949	979	501
0	329955	979	401
0	329961	979	301
0	329967	979	201
0	329973	979	101
0	329979	979	1
0	330108	980	901
0	330135	980	801
0	330157	980	701
0	330179	980	601
0	330198	980	501
0	330220	980	401
0	330242	980	301
0	330261	980	201
0	330283	980	901
0	330305	980	801
0	330320	980	701
0	330337	980	601
0	330351	980	501
0	330368	980	401
0	330382	980	301
0	330399	980	201
0	330413	980	901
0	330430	980	801
0	330444	980	701
0	330461	980	601
0	330475	980	501
0	330492	980	401
0	330506	980	301
0	330523	980	201
0	330537	980	101
0	330554	980	1
0	330826	981	901
0	330853	981	801
0	330875	981	701
0	330894	981	601
0	330916	981	501
0	330938	981	401
0	330957	981	301
0	330979	981	903
0	331001	981	803
0	331020	981	703
0	331034	981	603
0	331043	981	503
0	331052	981	403
0	331061	981	201
0	331070	981	303
0	331079	981	203
0	331088	981	103
0	331097	981	902
0	331106	981	802
0	331115	981	702
0	331124	981	602
0	331133	981	502
0	331142	981	402
0	331151	981	302
0	331160	981	202
0	331169	981	102
0	331178	981	101
0	331187	981	901
0	331194	981	801
0	331200	981	701
0	331206	981	601
0	331212	981	501
0	331218	981	401
0	331224	981	301
0	331230	981	201
0	331236	981	901
0	331242	981	903
0	331248	981	801
0	331254	981	803
0	331260	981	701
0	331266	981	703
0	331272	981	601
0	331278	981	603
0	331284	981	501
0	331290	981	503
0	331296	981	401
0	331302	981	403
0	331308	981	301
0	331314	981	303
0	331320	981	201
0	331326	981	203
0	331332	981	101
0	331338	981	103
0	331344	981	1
0	331350	981	902
0	331356	981	802
0	331362	981	702
0	331368	981	602
0	331374	981	502
0	331380	981	402
0	331386	981	302
0	331392	981	202
0	331398	981	102
0	331404	981	901
0	331410	981	801
0	331416	981	701
0	331422	981	601
0	331428	981	501
0	331434	981	401
0	331440	981	301
0	331446	981	201
0	331452	981	101
0	331699	982	901
0	331721	982	914
0	331732	982	801
0	331746	982	814
0	331760	982	701
0	331774	982	714
0	331785	982	601
0	331802	982	614
0	331813	982	501
0	331827	982	915
0	331841	982	401
0	331855	982	414
0	331866	982	301
0	331883	982	314
0	331894	982	201
0	331908	982	214
0	331922	982	101
0	331936	982	913
0	331947	982	901
0	331960	982	813
0	331967	982	801
0	331976	982	713
0	331982	982	701
0	331991	982	613
0	331997	982	601
0	332006	982	514
0	332012	982	501
0	332021	982	513
0	332027	982	401
0	332036	982	413
0	332042	982	301
0	332051	982	313
0	332057	982	201
0	332066	982	213
0	332072	982	901
0	332081	982	912
0	332087	982	901
0	332096	982	812
0	332102	982	801
0	332111	982	712
0	332117	982	801
0	332126	982	612
0	332132	982	701
0	332141	982	512
0	332147	982	701
0	332156	982	412
0	332162	982	601
0	332171	982	312
0	332177	982	601
0	332186	982	212
0	332192	982	501
0	332201	982	911
0	332207	982	501
0	332216	982	811
0	332222	982	401
0	332229	982	711
0	332235	982	401
0	332241	982	611
0	332247	982	301
0	332253	982	511
0	332259	982	301
0	332265	982	411
0	332271	982	201
0	332277	982	311
0	332283	982	201
0	332289	982	211
0	332295	982	101
0	332301	982	910
0	332307	982	101
0	332313	982	810
0	332319	982	1
0	332325	982	710
0	332332	982	610
0	332338	982	510
0	332344	982	410
0	332350	982	310
0	332356	982	210
0	332362	982	909
0	332368	982	809
0	332374	982	709
0	332380	982	609
0	332386	982	509
0	332392	982	409
0	332398	982	309
0	332404	982	209
0	332410	982	917
0	332416	982	817
0	332422	982	916
0	332428	982	816
0	332434	982	815
0	332440	982	908
0	332446	982	808
0	332452	982	708
0	332458	982	608
0	332464	982	508
0	332470	982	408
0	332476	982	308
0	332482	982	208
0	332488	982	907
0	332494	982	807
0	332500	982	707
0	332506	982	607
0	332512	982	507
0	332518	982	407
0	332524	982	307
0	332530	982	207
0	332536	982	906
0	332542	982	806
0	332548	982	706
0	332554	982	606
0	332560	982	506
0	332566	982	406
0	332572	982	306
0	332578	982	206
0	332584	982	905
0	332590	982	805
0	332596	982	705
0	332602	982	605
0	332608	982	505
0	332614	982	405
0	332620	982	305
0	332626	982	205
0	332632	982	904
0	332638	982	804
0	332644	982	704
0	332650	982	604
0	332656	982	504
0	332662	982	404
0	332668	982	304
0	332674	982	204
0	332680	982	903
0	332686	982	803
0	332692	982	703
0	332698	982	603
0	332704	982	503
0	332710	982	403
0	332716	982	303
0	332722	982	203
0	332728	982	902
0	332734	982	802
0	332740	982	702
0	332746	982	602
0	332752	982	502
0	332758	982	402
0	332764	982	302
0	332770	982	202
0	332776	982	901
0	332782	982	801
0	332788	982	701
0	332794	982	601
0	332800	982	501
0	332806	982	401
0	332812	982	301
0	332818	982	201
0	332953	983	901
0	332975	983	901
0	332986	983	801
0	333000	983	801
0	333014	983	701
0	333028	983	701
0	333039	983	601
0	333056	983	601
0	333067	983	501
0	333081	983	501
0	333095	983	401
0	333109	983	401
0	333120	983	301
0	333137	983	301
0	333148	983	201
0	333162	983	201
0	333176	983	101
0	333196	983	901
0	333210	983	801
0	333219	983	701
0	333228	983	601
0	333237	983	501
0	333246	983	401
0	333255	983	301
0	333264	983	201
0	333273	983	901
0	333282	983	901
0	333291	983	801
0	333300	983	801
0	333309	983	701
0	333318	983	701
0	333327	983	601
0	333336	983	601
0	333345	983	501
0	333354	983	501
0	333363	983	401
0	333370	983	401
0	333376	983	301
0	333382	983	301
0	333388	983	201
0	333394	983	201
0	333400	983	101
0	333406	983	101
0	333412	983	1
0	333548	984	901
0	333575	984	801
0	333597	984	701
0	333616	984	601
0	333638	984	501
0	333660	984	401
0	333679	984	301
0	333701	984	201
0	333723	984	101
0	333742	984	901
0	333756	984	801
0	333765	984	701
0	333774	984	601
0	333783	984	501
0	333792	984	401
0	333801	984	301
0	333810	984	201
0	333819	984	901
0	333828	984	901
0	333837	984	801
0	333846	984	801
0	333855	984	701
0	333864	984	701
0	333873	984	601
0	333882	984	601
0	333891	984	501
0	333900	984	501
0	333909	984	401
0	333916	984	401
0	333922	984	301
0	333928	984	301
0	333934	984	201
0	333940	984	201
0	333946	984	101
0	333952	984	101
0	333958	984	1
0	334092	985	901
0	334118	985	801
0	334137	985	701
0	334158	985	601
0	334179	985	501
0	334198	985	401
0	334219	985	301
0	334240	985	201
0	334259	985	101
0	334280	985	901
0	334293	985	801
0	334302	985	701
0	334311	985	601
0	334320	985	501
0	334329	985	401
0	334338	985	301
0	334347	985	201
0	334356	985	901
0	334365	985	901
0	334374	985	801
0	334381	985	801
0	334387	985	701
0	334393	985	701
0	334399	985	601
0	334405	985	601
0	334411	985	501
0	334417	985	501
0	334423	985	401
0	334429	985	401
0	334435	985	301
0	334441	985	301
0	334447	985	201
0	334453	985	201
0	334459	985	101
0	334465	985	101
0	334471	985	1
0	334583	986	901
0	334608	986	801
0	334627	986	701
0	334648	986	601
0	334669	986	501
0	334688	986	401
0	334709	986	301
0	334730	986	901
0	334749	986	901
0	334770	986	801
0	334783	986	801
0	334792	986	701
0	334801	986	701
0	334810	986	601
0	334819	986	601
0	334828	986	501
0	334837	986	501
0	334846	986	401
0	334855	986	401
0	334864	986	301
0	334871	986	301
0	334877	986	201
0	334883	986	201
0	334889	986	101
0	334895	986	101
0	334901	986	1
0	335086	987	901
0	335112	987	801
0	335133	987	701
0	335152	987	601
0	335173	987	501
0	335194	987	401
0	335213	987	301
0	335234	987	901
0	335255	987	901
0	335274	987	801
0	335287	987	801
0	335296	987	701
0	335305	987	701
0	335314	987	601
0	335323	987	601
0	335332	987	501
0	335341	987	501
0	335350	987	401
0	335359	987	401
0	335368	987	301
0	335377	987	301
0	335386	987	201
0	335395	987	201
0	335404	987	101
0	335413	987	101
0	335422	987	1
0	336034	988	901
0	336058	988	801
0	336077	988	701
0	336098	988	920
0	336119	988	820
0	336138	988	720
0	336159	988	919
0	336180	988	819
0	336199	988	601
0	336216	988	719
0	336226	988	918
0	336235	988	818
0	336244	988	718
0	336253	988	917
0	336262	988	817
0	336271	988	717
0	336280	988	916
0	336289	988	816
0	336298	988	716
0	336307	988	915
0	336316	988	815
0	336325	988	715
0	336334	988	914
0	336343	988	814
0	336352	988	714
0	336361	988	913
0	336370	988	813
0	336377	988	713
0	336383	988	912
0	336389	988	812
0	336395	988	712
0	336401	988	911
0	336407	988	811
0	336413	988	711
0	336419	988	910
0	336425	988	810
0	336431	988	710
0	336437	988	909
0	336443	988	809
0	336449	988	709
0	336455	988	908
0	336461	988	808
0	336467	988	708
0	336473	988	907
0	336479	988	807
0	336485	988	707
0	336491	988	906
0	336497	988	806
0	336503	988	706
0	336509	988	905
0	336515	988	805
0	336521	988	705
0	336527	988	904
0	336533	988	804
0	336539	988	704
0	336545	988	903
0	336551	988	803
0	336557	988	703
0	336563	988	902
0	336569	988	802
0	336575	988	702
0	336581	988	501
0	336587	988	401
0	336593	988	301
0	336599	988	603
0	336605	988	503
0	336611	988	403
0	336617	988	303
0	336623	988	602
0	336629	988	502
0	336635	988	402
0	336641	988	302
0	336647	988	201
0	336653	988	903
0	336659	988	803
0	336665	988	703
0	336671	988	603
0	336677	988	503
0	336683	988	403
0	336689	988	303
0	336695	988	902
0	336701	988	802
0	336707	988	702
0	336713	988	602
0	336719	988	502
0	336725	988	402
0	336731	988	302
0	336737	988	920
0	336743	988	820
0	336749	988	720
0	336755	988	919
0	336761	988	819
0	336767	988	719
0	336773	988	918
0	336779	988	818
0	336785	988	718
0	336791	988	917
0	336797	988	817
0	336803	988	717
0	336809	988	916
0	336815	988	816
0	336821	988	716
0	336827	988	915
0	336833	988	815
0	336839	988	715
0	336845	988	914
0	336851	988	814
0	336857	988	714
0	336863	988	913
0	336869	988	813
0	336875	988	713
0	336881	988	912
0	336887	988	812
0	336893	988	712
0	336899	988	911
0	336905	988	811
0	336911	988	711
0	336917	988	910
0	336923	988	810
0	336929	988	710
0	336935	988	909
0	336941	988	809
0	336947	988	709
0	336953	988	908
0	336959	988	808
0	336965	988	708
0	336971	988	907
0	336977	988	807
0	336983	988	707
0	336989	988	906
0	336995	988	806
0	337001	988	706
0	337007	988	905
0	337013	988	805
0	337019	988	705
0	337025	988	904
0	337031	988	804
0	337037	988	704
0	337043	988	901
0	337049	988	801
0	337055	988	701
0	337061	988	601
0	337067	988	501
0	337073	988	401
0	337079	988	301
0	337085	988	201
0	337091	988	901
0	337097	988	901
0	337103	988	801
0	337109	988	801
0	337115	988	701
0	337121	988	701
0	337127	988	601
0	337133	988	601
0	337139	988	501
0	337145	988	501
0	337151	988	401
0	337157	988	401
0	337163	988	301
0	337169	988	301
0	337175	988	201
0	337181	988	201
0	337187	988	101
0	337193	988	101
0	337199	988	1
0	337331	989	901
0	337355	989	801
0	337376	989	701
0	337397	989	601
0	337416	989	501
0	337437	989	401
0	337458	989	301
0	337477	989	201
0	337498	989	901
0	337519	989	801
0	337534	989	701
0	337546	989	601
0	337555	989	501
0	337564	989	401
0	337573	989	301
0	337582	989	201
0	337591	989	901
0	337600	989	901
0	337609	989	801
0	337618	989	801
0	337627	989	701
0	337636	989	701
0	337645	989	601
0	337654	989	601
0	337663	989	501
0	337672	989	501
0	337681	989	401
0	337690	989	401
0	337697	989	301
0	337703	989	301
0	337709	989	201
0	337715	989	201
0	337721	989	101
0	337727	989	101
0	337733	989	1
0	337875	990	901
0	337896	990	801
0	337915	990	701
0	337936	990	601
0	337953	990	501
0	337967	990	401
0	337983	990	301
0	337997	990	201
0	338013	990	901
0	338027	990	801
0	338039	990	701
0	338048	990	601
0	338057	990	501
0	338066	990	401
0	338075	990	301
0	338084	990	201
0	338093	990	901
0	338102	990	901
0	338111	990	801
0	338120	990	801
0	338129	990	701
0	338138	990	701
0	338147	990	601
0	338154	990	601
0	338160	990	501
0	338166	990	501
0	338172	990	401
0	338178	990	401
0	338184	990	301
0	338190	990	301
0	338196	990	201
0	338202	990	201
0	338208	990	101
0	338214	990	101
0	338220	990	1
0	338341	991	901
0	338365	991	801
0	338386	991	701
0	338407	991	601
0	338426	991	501
0	338443	991	401
0	338459	991	301
0	338473	991	201
0	338489	991	101
0	338503	991	901
0	338515	991	801
0	338524	991	701
0	338533	991	601
0	338542	991	501
0	338551	991	401
0	338560	991	301
0	338569	991	201
0	338578	991	101
0	338587	991	901
0	338596	991	901
0	338605	991	801
0	338614	991	801
0	338623	991	701
0	338632	991	701
0	338639	991	601
0	338645	991	601
0	338651	991	501
0	338657	991	401
0	338663	991	301
0	338669	991	201
0	338675	991	101
0	338681	991	1
0	338809	992	901
0	338833	992	801
0	338854	992	701
0	338875	992	601
0	338894	992	501
0	338911	992	401
0	338927	992	301
0	338941	992	201
0	338957	992	101
0	338971	992	901
0	338983	992	801
0	338992	992	701
0	339001	992	601
0	339010	992	501
0	339019	992	401
0	339028	992	301
0	339037	992	201
0	339046	992	101
0	339055	992	901
0	339064	992	901
0	339073	992	801
0	339082	992	801
0	339091	992	701
0	339100	992	701
0	339107	992	601
0	339113	992	601
0	339119	992	501
0	339125	992	401
0	339131	992	301
0	339137	992	201
0	339143	992	101
0	339149	992	1
0	339265	993	901
0	339289	993	801
0	339310	993	701
0	339327	993	601
0	339341	993	501
0	339357	993	401
0	339371	993	301
0	339387	993	201
0	339401	993	901
0	339413	993	801
0	339422	993	701
0	339431	993	601
0	339440	993	501
0	339449	993	401
0	339458	993	301
0	339467	993	201
0	339476	993	101
0	339485	993	901
0	339494	993	901
0	339501	993	801
0	339507	993	801
0	339513	993	701
0	339519	993	701
0	339525	993	601
0	339531	993	601
0	339537	993	501
0	339543	993	401
0	339549	993	301
0	339555	993	201
0	339561	993	101
0	339567	993	1
0	339670	994	901
0	339685	994	701
0	339700	994	601
0	339715	994	501
0	339730	994	401
0	339745	994	301
0	339760	994	201
0	339775	994	901
0	339790	994	701
0	339801	994	601
0	339810	994	501
0	339819	994	401
0	339828	994	301
0	339837	994	201
0	339846	994	101
0	339855	994	701
0	339862	994	701
0	339868	994	601
0	339874	994	601
0	339880	994	501
0	339886	994	401
0	339892	994	301
0	339898	994	201
0	339904	994	101
0	339910	994	1
0	340007	995	901
0	340022	995	701
0	340037	995	601
0	340051	995	501
0	340066	995	401
0	340080	995	301
0	340095	995	201
0	340109	995	901
0	340124	995	701
0	340134	995	601
0	340143	995	501
0	340152	995	401
0	340161	995	301
0	340170	995	201
0	340179	995	101
0	340188	995	701
0	340195	995	601
0	340201	995	501
0	340207	995	401
0	340213	995	301
0	340219	995	201
0	340225	995	101
0	340231	995	1
0	340321	996	901
0	340335	996	701
0	340350	996	601
0	340364	996	501
0	340379	996	401
0	340393	996	301
0	340408	996	201
0	340422	996	901
0	340437	996	701
0	340447	996	601
0	340456	996	501
0	340465	996	401
0	340474	996	301
0	340483	996	201
0	340492	996	101
0	340501	996	701
0	340508	996	601
0	340514	996	501
0	340520	996	401
0	340526	996	301
0	340532	996	201
0	340538	996	101
0	340544	996	1
0	340687	997	901
0	340710	997	701
0	340729	997	601
0	340749	997	501
0	340769	997	401
0	340788	997	301
0	340808	997	201
0	340828	997	901
0	340847	997	701
0	340867	997	601
0	340887	997	501
0	340902	997	401
0	340917	997	301
0	340931	997	201
0	340946	997	101
0	340960	997	701
0	340975	997	601
0	340989	997	501
0	341000	997	401
0	341009	997	301
0	341018	997	201
0	341027	997	101
0	341036	997	1
0	341276	998	901
0	341299	998	905
0	341318	998	805
0	341338	998	904
0	341350	998	804
0	341359	998	903
0	341368	998	803
0	341377	998	902
0	341386	998	802
0	341395	998	801
0	341404	998	701
0	341411	998	601
0	341417	998	501
0	341423	998	401
0	341429	998	301
0	341435	998	201
0	341441	998	901
0	341447	998	905
0	341453	998	805
0	341459	998	904
0	341465	998	804
0	341471	998	903
0	341477	998	803
0	341483	998	902
0	341489	998	802
0	341495	998	801
0	341501	998	701
0	341507	998	601
0	341513	998	501
0	341519	998	401
0	341525	998	301
0	341531	998	201
0	341537	998	101
0	341543	998	905
0	341549	998	905
0	341555	998	805
0	341561	998	805
0	341567	998	904
0	341573	998	904
0	341579	998	804
0	341585	998	804
0	341591	998	903
0	341597	998	903
0	341603	998	803
0	341609	998	803
0	341615	998	902
0	341621	998	902
0	341627	998	802
0	341633	998	802
0	341639	998	901
0	341645	998	901
0	341651	998	801
0	341657	998	801
0	341663	998	701
0	341669	998	601
0	341675	998	501
0	341681	998	401
0	341687	998	301
0	341693	998	201
0	341699	998	101
0	341705	998	1
0	341762	999	901
0	341777	999	201
0	341792	999	801
0	341802	999	101
0	341811	999	901
0	341820	999	201
0	341829	999	801
0	341836	999	101
0	341842	999	201
0	341848	999	1


