version 2
run General-0-20250115-06:09:51-105908
attr configname General
attr datetime 20250115-06:09:51
attr experiment General
attr inifile shaw.ini
attr iterationvars ""
attr iterationvarsf ""
attr measurement ""
attr network src.dtnsim
attr processid 105908
attr repetition 0
attr replication #0
attr resultdir results
attr runnumber 0
attr seedset 0
param dtnsim.central.contactsFile "\"contactPlan/Contacts.txt\""
param dtnsim.central.contactsFile_A "\"contactPlan/Contacts.txt\""
param dtnsim.central.contactsFile_B "\"contactPlan/Contacts.txt\""
param dtnsim.central.contactIdsToDelete_from_celestialA "\"15 18 19 25 35 36 43 47 61 67 68 80 81 88 90 93 96 98 108 109 114 120 121 123 149 153 154 165 168 173 187 191 192 193 195 208 209 236 239 250 267 273 274 275 277 296 298 303 310 319 321 322 327 329 332 334 335 339 345 347 365 372 373 388 393 402 403 414 419 421 425 436 440 449 451 456 463 466 472 476 477 484 492 498 503 509 523 526 528 530 543 544 559 564 570 581 582 590\""
param dtnsim.central.contactIdsToDelete_from_celestialB "\"1 11 14 16 29 54 56 57 65 66 71 75 76 83 85 89 106 110 131 133 134 140 143 150 161 162 163 171 172 176 185 190 198 199 201 203 217 220 221 224 226 229 230 234 242 243 247 254 260 262 271 272 280 285 292 307 312 316 328 336 343 350 355 356 357 359 367 382 387 395 401 406 408 427 429 433 441 443 444 445 446 447 448 455 473 475 479 481 497 511 516 520 521 533 546 550 551 557 563 584 596 599\""
param dtnsim.central.celestialA_nodes "\"1 2 3\""
param dtnsim.central.celestialB_nodes "\"4 5 6\""
param dtnsim.central.locallyfaultsAware true
param dtnsim.central.mode_two_celestial true
param dtnsim.nodesNumber 6
param dtnsim.node[1].icon "\"receiverdish\""
param dtnsim.node[2..5].icon "\"satellite\""
param dtnsim.node[6].icon "\"receiverdish\""
param dtnsim.node[*].dtn.routing "\"cgrModel350\""
param dtnsim.node[*].dtn.routingType "\"routeListType:allPaths-firstEnding,volumeAware:allContacts,extensionBlock:on,contactPlan:global\""
param dtnsim.node[1].app.enable true
param dtnsim.node[*].app.custodyTransfer true
param dtnsim.node[1].app.bundlesNumber "\"1800\""
param dtnsim.node[1].app.start "\"0\""
param dtnsim.node[1].app.destinationEid "\"6\""
param dtnsim.node[1].app.size "\"1500\""
param dtnsim.node[1].app.interval 1

vector 0 dtnsim.node[6].app appBundleReceivedDelayvec:vector ETV
attr interpolationmode none
attr source appBundleReceivedDelay
attr title "appBundleReceivedDelayvec, vector"
0	2023	36.5	36.5
0	2024	36.5	35.5
0	2025	36.5	34.5
0	2026	36.5	33.5
0	2027	36.5	32.5
0	2028	36.5	31.5
0	2029	36.5	30.5
0	2030	36.5	29.5
0	2031	36.5	28.5
0	2032	36.5	27.5
0	2033	36.5	26.5
0	2034	36.5	25.5
0	2035	36.5	24.5
0	2036	36.5	23.5
0	2037	36.5	22.5
0	2038	36.5	21.5
0	2039	36.5	20.5
0	2040	36.5	19.5
0	2041	36.5	18.5
0	2042	36.5	17.5
0	2043	36.5	16.5
0	2044	36.5	15.5
0	2045	36.5	14.5
0	2046	36.5	13.5
0	2047	36.5	12.5
0	2048	36.5	11.5
0	2049	36.5	10.5
0	2050	36.5	9.5
0	2051	36.5	8.5
0	2052	36.5	7.5
0	2053	36.5	6.5
0	2054	36.5	5.5
0	2055	36.5	4.5
0	2363	36.9	3.9
0	2511	37.9	3.9
0	2771	38.9	3.9
0	2930	39.9	3.9
0	3027	40.9	3.9
0	3122	41.9	3.9
0	3217	42.9	3.9
0	3312	43.9	3.9
0	3407	44.9	3.9
0	3502	45.9	3.9
0	3597	46.9	3.9
0	3692	47.9	3.9
0	3787	48.9	3.9
0	3885	49.9	3.9
0	3981	50.9	3.9
0	4080	51.9	3.9
0	4177	52.9	3.9
0	4274	53.9	3.9
0	4371	54.9	3.9
0	4471	55.9	3.9
0	4570	56.9	3.9
0	4673	57.9	3.9
0	4777	58.9	3.9
0	4879	59.9	3.9
0	4981	60.9	3.9
0	5083	61.9	3.9
0	5185	62.9	3.9
0	5274	63.6	1.6
0	5338	63.9	3.9
0	5427	64.6	1.6
0	5472	64.9	3.9
0	5562	65.6	1.6
0	5652	66.6	1.6
0	5740	67.6	1.6
0	5828	68.6	1.6
0	5919	69.6	1.6
0	6010	70.6	1.6
0	6072	71.2	1.2
0	6141	72.2	1.2
0	6200	73.2	1.2
0	6266	74.2	1.2
0	6332	75.2	1.2
0	6401	76.2	1.2
0	6468	77.2	1.2
0	6536	78.2	1.2
0	6602	79.2	1.2
0	6667	80.2	1.2
0	6732	81.2	1.2
0	6799	82.2	1.2
0	6863	83.2	1.2
0	6923	84.2	1.2
0	7026	86.2	2.2
0	7027	86.2	1.2
0	7083	87.2	1.2
0	7143	88.2	1.2
0	7204	89.2	1.2
0	7261	90.2	1.2
0	7316	91.2	1.2
0	7371	92.2	1.2
0	7426	93.2	1.2
0	7481	94.2	1.2
0	7536	95.2	1.2
0	7591	96.2	1.2
0	7649	97.2	1.2
0	7705	98.2	1.2
0	7759	99.2	1.2
0	7807	100.4	1.4
0	7853	101.4	1.4
0	7899	102.4	1.4
0	7947	103.4	1.4
0	7996	104.4	1.4
0	8042	105.4	1.4
0	8088	106.4	1.4
0	8409	107.4	1.4
0	8482	108.4	1.4
0	8534	109.4	1.4
0	9248	132.6	23.6
0	9249	132.6	22.6
0	9250	132.6	21.6
0	9251	132.6	20.6
0	9252	132.6	19.6
0	9253	132.6	18.6
0	9254	132.6	17.6
0	9255	132.6	16.6
0	9256	132.6	15.6
0	9257	132.6	14.6
0	9258	132.6	13.6
0	9259	132.6	12.6
0	9260	132.6	11.6
0	9261	132.6	10.6
0	9262	132.6	9.6
0	9263	132.6	8.6
0	9264	132.6	7.6
0	9265	132.6	6.6
0	9266	132.6	5.6
0	9267	132.6	4.6
0	9268	132.6	3.6
0	9269	132.6	2.6
0	9270	132.6	1.6
0	9425	133.6	1.6
0	9550	134.6	1.6
0	9633	135.6	1.6
0	9715	136.6	1.6
0	9762	137.6	1.6
0	9815	138.6	1.6
0	9862	139.6	1.6
0	9915	140.6	1.6
0	9964	141.6	1.6
0	10013	142.6	1.6
0	10062	143.6	1.6
0	10107	144.6	1.6
0	10234	146.5	2.5
0	10235	146.5	1.5
0	10325	147.5	1.5
0	10417	148.5	1.5
0	10573	150.5	2.5
0	10592	150.6	1.6
0	10654	151.6	1.6
0	10729	152.6	1.6
0	10795	153.6	1.6
0	10861	154.6	1.6
0	10927	155.6	1.6
0	10993	156.6	1.6
0	11059	157.6	1.6
0	11122	158.6	1.6
0	18324	250.1	91.1
0	18325	250.1	90.1
0	18326	250.1	89.1
0	18327	250.1	88.1
0	18328	250.1	87.1
0	18329	250.1	86.1
0	18330	250.1	85.1
0	18331	250.1	84.1
0	18332	250.1	83.1
0	18333	250.1	82.1
0	18334	250.1	81.1
0	18335	250.1	80.1
0	18336	250.1	79.1
0	18337	250.1	78.1
0	18338	250.1	77.1
0	18339	250.1	76.1
0	18340	250.1	75.1
0	18341	250.1	74.1
0	18342	250.1	73.1
0	18343	250.1	72.1
0	18344	250.1	71.1
0	18345	250.1	70.1
0	18346	250.1	69.1
0	18347	250.1	68.1
0	18348	250.1	67.1
0	18349	250.1	66.1
0	18350	250.1	65.1
0	18351	250.1	64.1
0	18352	250.1	63.1
0	18353	250.1	62.1
0	18354	250.1	61.1
0	18355	250.1	60.1
0	18356	250.1	59.1
0	18357	250.1	58.1
0	18358	250.1	57.1
0	18359	250.1	56.1
0	18360	250.1	55.1
0	18361	250.1	54.1
0	18362	250.1	53.1
0	18363	250.1	52.1
0	18364	250.1	51.1
0	18365	250.1	50.1
0	18366	250.1	49.1
0	18367	250.1	48.1
0	18368	250.1	47.1
0	18369	250.1	46.1
0	18370	250.1	45.1
0	18371	250.1	44.1
0	18372	250.1	43.1
0	18373	250.1	92.1
0	18374	250.1	42.1
0	18375	250.1	41.1
0	18376	250.1	40.1
0	18377	250.1	39.1
0	18378	250.1	38.1
0	18379	250.1	37.1
0	18380	250.1	36.1
0	18381	250.1	35.1
0	18382	250.1	34.1
0	18383	250.1	33.1
0	18384	250.1	32.1
0	18385	250.1	31.1
0	18386	250.1	30.1
0	18387	250.1	29.1
0	18388	250.1	28.1
0	18389	250.1	27.1
0	18390	250.1	26.1
0	18391	250.1	25.1
0	18392	250.1	24.1
0	18393	250.1	23.1
0	18394	250.1	22.1
0	18395	250.1	21.1
0	18396	250.1	20.1
0	18397	250.1	19.1
0	18398	250.1	18.1
0	18399	250.1	17.1
0	18400	250.1	16.1
0	18401	250.1	15.1
0	18402	250.1	14.1
0	18403	250.1	13.1
0	18404	250.1	12.1
0	18405	250.1	11.1
0	18406	250.1	10.1
0	18407	250.1	9.1
0	18408	250.1	8.1
0	18409	250.1	7.1
0	18410	250.1	6.1
0	18411	250.1	5.1
0	18412	250.1	4.1
0	18413	250.1	3.1
0	18414	250.1	2.1
0	18913	250.2	1.2
0	19181	251.2	1.2
0	19579	252.2	1.2
0	19735	253.2	1.2
0	20020	254.2	1.2
0	20439	255.2	1.2
0	20741	256.2	1.2
0	21174	257.2	1.2
0	21363	258.2	1.2
0	21679	259.2	1.2
0	22134	260.2	1.2
0	22470	261.2	1.2
0	22939	262.2	1.2
0	23164	263.2	1.2
0	23516	264.2	1.2
0	24001	265.2	1.2
0	24340	266.2	1.2
0	24485	267.2	1.2
0	24547	268.2	1.2
0	24605	269.2	1.2
0	24663	270.2	1.2
0	24721	271.2	1.2
0	24779	272.2	1.2
0	24837	273.2	1.2
0	24895	274.2	1.2
0	24953	275.2	1.2
0	25011	276.2	1.2
0	25072	277.2	1.2
0	25131	278.2	1.2
0	25190	279.2	1.2
0	25249	280.2	1.2
0	25313	281.2	1.2
0	25371	282.2	1.2
0	25498	284.7	2.7
0	25499	284.7	1.7
0	25573	285.7	1.7
0	25641	286.7	1.7
0	25707	287.7	1.7
0	25773	288.7	1.7
0	25839	289.7	1.7
0	25941	290.7	1.7
0	26045	291.7	1.7
0	26115	292.7	1.7
0	26185	293.7	1.7
0	26257	294.7	1.7
0	26328	295.7	1.7
0	26399	296.7	1.7
0	26468	297.7	1.7
0	26538	298.7	1.7
0	26603	299.7	1.7
0	26666	300.7	1.7
0	26729	301.7	1.7
0	26817	302.7	1.7
0	26894	303.7	1.7
0	26960	304.7	1.7
0	27034	305.7	1.7
0	27105	306.7	1.7
0	27164	307.6	1.6
0	27221	308.6	1.6
0	27277	309.6	1.6
0	27336	310.6	1.6
0	27392	311.6	1.6
0	27431	312.6	1.6
0	27572	315.6	3.6
0	27573	315.6	2.6
0	27574	315.6	1.6
0	27650	316.6	1.6
0	27706	317.6	1.6
0	27767	318.6	1.6
0	27828	319.6	1.6
0	27885	320.6	1.6
0	27944	321.6	1.6
0	28003	322.6	1.6
0	28061	323.6	1.6
0	28121	324.6	1.6
0	28181	325.6	1.6
0	28233	326.6	1.6
0	28287	327.6	1.6
0	28339	328.6	1.6
0	28390	329.6	1.6
0	28441	330.6	1.6
0	28491	331.6	1.6
0	28575	333.6	2.6
0	28576	333.6	1.6
0	28637	334.6	1.6
0	28688	335.6	1.6
0	28742	336.6	1.6
0	28794	337.6	1.6
0	28846	338.6	1.6
0	28898	339.6	1.6
0	28950	340.6	1.6
0	29004	341.6	1.6
0	29056	342.6	1.6
0	29108	343.6	1.6
0	29160	344.6	1.6
0	29212	345.6	1.6
0	29264	346.6	1.6
0	29316	347.6	1.6
0	29368	348.6	1.6
0	29543	349.6	1.6
0	29695	350.6	1.6
0	29756	351.6	1.6
0	29822	352.6	1.6
0	29883	353.4	1.4
0	29957	354.4	1.4
0	30032	355.4	1.4
0	30105	356.4	1.4
0	30178	357.4	1.4
0	30251	358.4	1.4
0	30324	359.4	1.4
0	30397	360.4	1.4
0	30473	361.4	1.4
0	30548	362.4	1.4
0	30622	363.4	1.4
0	30696	364.4	1.4
0	30770	365.4	1.4
0	30846	366.4	1.4
0	30920	367.4	1.4
0	30994	368.4	1.4
0	31068	369.4	1.4
0	31141	370.4	1.4
0	31218	371.4	1.4
0	31294	372.4	1.4
0	31362	373.4	1.4
0	31436	374.4	1.4
0	31517	375.4	1.4
0	31589	376.4	1.4
0	31659	377.4	1.4
0	31729	378.4	1.4
0	31799	379.4	1.4
0	31868	380.4	1.4
0	31937	381.4	1.4
0	32005	382.4	1.4
0	32074	383.4	1.4
0	32142	384.4	1.4
0	32214	385.4	1.4
0	32284	386.4	1.4
0	32354	387.4	1.4
0	32472	388.4	1.4
0	32573	389.4	1.4
0	32733	390.4	1.4
0	32822	391.4	1.4
0	32911	392.4	1.4
0	33000	393.4	1.4
0	33089	394.4	1.4
0	33178	395.4	1.4
0	33269	396.4	1.4
0	33361	397.4	1.4
0	33452	398.4	1.4
0	33543	399.4	1.4
0	33634	400.4	1.4
0	33725	401.4	1.4
0	33816	402.4	1.4
0	33909	403.4	1.4
0	34001	404.4	1.4
0	34094	405.4	1.4
0	34202	406.4	1.4
0	34316	407.4	1.4
0	34350	407.5	101.5
0	34468	408.4	1.4
0	34502	408.5	101.5
0	34623	409.4	1.4
0	34652	409.5	101.5
0	34887	410.4	1.4
0	34931	410.5	101.5
0	35249	411.4	1.4
0	35303	411.5	101.5
0	37458	416.4	5.4
0	37459	416.4	4.4
0	37460	416.4	3.4
0	37461	416.4	2.4
0	37571	416.5	1.5
0	38267	417.5	1.5
0	39001	418.5	1.5
0	39785	419.5	1.5
0	40619	420.5	1.5
0	41239	421.5	1.5
0	41398	422.5	1.5
0	41454	423.5	1.5
0	41503	424.5	1.5
0	41553	425.5	1.5
0	41601	426.5	1.5
0	41649	427.5	1.5
0	41697	428.5	1.5
0	41745	429.5	1.5
0	41792	430.5	1.5
0	41838	431.5	1.5
0	41885	432.5	1.5
0	41936	433.5	1.5
0	41983	434.5	1.5
0	42030	435.5	1.5
0	42077	436.5	1.5
0	42124	437.5	1.5
0	42171	438.5	1.5
0	42349	439.5	1.5
0	42731	440.5	1.5
0	42843	441.5	1.5
0	42924	442.5	1.5
0	43005	443.5	1.5
0	43086	444.5	1.5
0	43167	445.5	1.5
0	43248	446.5	1.5
0	43321	447.5	1.5
0	43389	448.5	1.5
0	43457	449.5	1.5
0	43528	450.5	1.5
0	43598	451.5	1.5
0	43668	452.5	1.5
0	43738	453.5	1.5
0	43808	454.5	1.5
0	43877	455.5	1.5
0	43946	456.5	1.5
0	44013	457.5	1.5
0	44668	474.1	17.1
0	44669	474.1	16.1
0	44670	474.1	15.1
0	44671	474.1	14.1
0	44672	474.1	13.1
0	44673	474.1	12.1
0	44674	474.1	11.1
0	44675	474.1	10.1
0	44676	474.1	9.1
0	44677	474.1	8.1
0	44678	474.1	7.1
0	44679	474.1	6.1
0	44680	474.1	5.1
0	44681	474.1	4.1
0	44682	474.1	3.1
0	44683	474.1	2.1
0	44922	474.5	1.5
0	45031	475.5	1.5
0	45095	476.5	1.5
0	45157	477.5	1.5
0	45219	478.5	1.5
0	45281	479.5	1.5
0	45343	480.5	1.5
0	45387	481.5	1.5
0	47155	564.5	101.5
0	47181	565.5	101.5
0	47207	566.5	101.5
0	47233	567.5	101.5
0	47262	568.5	101.5
0	47282	569.5	101.5
0	47337	571.5	102.5
0	47338	571.5	101.5
0	47528	572.5	101.5
0	47561	573.5	101.5
0	47670	574.1	117.1
0	47671	574.1	116.1
0	47672	574.1	115.1
0	47673	574.1	114.1
0	47674	574.1	113.1
0	47675	574.1	112.1
0	47676	574.1	111.1
0	47677	574.1	110.1
0	47678	574.1	109.1
0	47679	574.1	108.1
0	47680	574.1	107.1
0	47681	574.1	106.1
0	47682	574.1	105.1
0	47683	574.1	104.1
0	47684	574.1	103.1
0	47685	574.1	102.1
0	47713	574.5	101.5
0	47714	574.5	101.5
0	47755	575.5	101.5
0	47756	575.5	101.5
0	47798	576.5	101.5
0	47799	576.5	101.5
0	47839	577.5	101.5
0	47840	577.5	101.5
0	47880	578.5	101.5
0	47881	578.5	101.5
0	47921	579.5	101.5
0	47922	579.5	101.5
0	47964	580.5	101.5
0	47965	580.5	101.5
0	47997	581.5	101.5
0	47998	581.5	101.5
0	51194	584.5	103.5
0	51195	584.5	102.5
0	51196	584.5	101.5
0	51197	584.5	100.5
0	51198	584.5	99.5
0	51199	584.5	98.5
0	51200	584.5	97.5
0	51201	584.5	96.5
0	51202	584.5	95.5
0	51203	584.5	94.5
0	51204	584.5	93.5
0	51205	584.5	92.5
0	51206	584.5	91.5
0	51207	584.5	90.5
0	51208	584.5	89.5
0	51209	584.5	88.5
0	51210	584.5	87.5
0	51211	584.5	86.5
0	51212	584.5	85.5
0	51213	584.5	84.5
0	51214	584.5	83.5
0	51215	584.5	82.5
0	51216	584.5	81.5
0	51217	584.5	80.5
0	51218	584.5	79.5
0	51219	584.5	78.5
0	51220	584.5	77.5
0	51221	584.5	76.5
0	51222	584.5	75.5
0	51223	584.5	74.5
0	51224	584.5	73.5
0	51225	584.5	72.5
0	51226	584.5	71.5
0	51227	584.5	70.5
0	51228	584.5	69.5
0	51229	584.5	68.5
0	51230	584.5	67.5
0	51231	584.5	66.5
0	51232	584.5	65.5
0	51233	584.5	64.5
0	51234	584.5	63.5
0	51235	584.5	62.5
0	51236	584.5	61.5
0	51237	584.5	60.5
0	51238	584.5	59.5
0	51239	584.5	58.5
0	51240	584.5	57.5
0	51241	584.5	56.5
0	51242	584.5	55.5
0	51243	584.5	54.5
0	51244	584.5	53.5
0	51245	584.5	52.5
0	51246	584.5	51.5
0	51247	584.5	50.5
0	51248	584.5	49.5
0	51249	584.5	48.5
0	51250	584.5	47.5
0	51251	584.5	46.5
0	51252	584.5	45.5
0	51253	584.5	44.5
0	51254	584.5	43.5
0	51255	584.5	42.5
0	51256	584.5	41.5
0	51257	584.5	40.5
0	51258	584.5	39.5
0	51259	584.5	38.5
0	51260	584.5	37.5
0	51261	584.5	36.5
0	51262	584.5	35.5
0	51263	584.5	34.5
0	51264	584.5	33.5
0	51265	584.5	32.5
0	51266	584.5	31.5
0	51267	584.5	30.5
0	51268	584.5	29.5
0	51269	584.5	28.5
0	51270	584.5	27.5
0	51271	584.5	26.5
0	51272	584.5	25.5
0	51273	584.5	24.5
0	51274	584.5	23.5
0	51275	584.5	22.5
0	51276	584.5	21.5
0	51277	584.5	20.5
0	51278	584.5	19.5
0	51279	584.5	18.5
0	51280	584.5	17.5
0	51281	584.5	16.5
0	51282	584.5	15.5
0	51283	584.5	14.5
0	51284	584.5	13.5
0	51285	584.5	12.5
0	51286	584.5	11.5
0	51287	584.5	10.5
0	51288	584.5	9.5
0	51289	584.5	8.5
0	51290	584.5	7.5
0	51291	584.5	6.5
0	51292	584.5	5.5
0	51293	584.5	4.5
0	51294	584.5	3.5
0	51295	584.5	2.5
0	51814	584.6	1.6
0	51870	585.6	1.6
0	52297	586.6	1.6
0	52603	587.6	1.6
0	53407	588.6	1.6
0	53475	589.6	1.6
0	53543	590.6	1.6
0	53611	591.6	1.6
0	53671	592.6	1.6
0	53731	593.6	1.6
0	53856	595.6	2.6
0	53857	595.6	1.6
0	53933	596.6	1.6
0	54000	597.6	1.6
0	54071	598.6	1.6
0	54133	599.6	1.6
0	54195	600.6	1.6
0	54257	601.6	1.6
0	54319	602.6	1.6
0	54381	603.6	1.6
0	54443	604.6	1.6
0	54530	605.6	1.6
0	54564	606.6	1.6
0	58868	709.3	103.3
0	58869	709.3	102.3
0	58870	709.3	101.3
0	58871	709.3	100.3
0	58872	709.3	99.3
0	58873	709.3	98.3
0	58874	709.3	97.3
0	58875	709.3	96.3
0	58876	709.3	95.3
0	58877	709.3	94.3
0	58878	709.3	93.3
0	58879	709.3	92.3
0	58880	709.3	91.3
0	58881	709.3	90.3
0	58882	709.3	89.3
0	58883	709.3	88.3
0	58884	709.3	87.3
0	58885	709.3	86.3
0	58886	709.3	85.3
0	58887	709.3	84.3
0	58888	709.3	83.3
0	58889	709.3	82.3
0	58890	709.3	81.3
0	58891	709.3	80.3
0	58892	709.3	79.3
0	58893	709.3	78.3
0	58894	709.3	77.3
0	58895	709.3	76.3
0	58896	709.3	75.3
0	58897	709.3	74.3
0	58898	709.3	73.3
0	58899	709.3	72.3
0	58900	709.3	71.3
0	58901	709.3	70.3
0	58902	709.3	69.3
0	58903	709.3	68.3
0	58904	709.3	67.3
0	58905	709.3	66.3
0	58906	709.3	65.3
0	58907	709.3	64.3
0	58908	709.3	63.3
0	58909	709.3	62.3
0	58910	709.3	61.3
0	58911	709.3	60.3
0	58912	709.3	59.3
0	58913	709.3	58.3
0	58914	709.3	57.3
0	58915	709.3	56.3
0	58916	709.3	55.3
0	58917	709.3	54.3
0	58918	709.3	53.3
0	58919	709.3	52.3
0	58920	709.3	51.3
0	58921	709.3	50.3
0	58922	709.3	49.3
0	58923	709.3	48.3
0	58924	709.3	47.3
0	58925	709.3	46.3
0	58926	709.3	45.3
0	58927	709.3	44.3
0	58928	709.3	43.3
0	58929	709.3	42.3
0	58930	709.3	41.3
0	58931	709.3	40.3
0	58932	709.3	39.3
0	58933	709.3	38.3
0	58934	709.3	37.3
0	58935	709.3	36.3
0	58936	709.3	35.3
0	58937	709.3	34.3
0	58938	709.3	33.3
0	58939	709.3	32.3
0	58940	709.3	31.3
0	58941	709.3	30.3
0	58942	709.3	29.3
0	58943	709.3	28.3
0	58944	709.3	27.3
0	58945	709.3	26.3
0	58946	709.3	25.3
0	58947	709.3	24.3
0	58948	709.3	23.3
0	58949	709.3	22.3
0	58950	709.3	21.3
0	58951	709.3	20.3
0	58952	709.3	19.3
0	58953	709.3	18.3
0	58954	709.3	17.3
0	58955	709.3	16.3
0	58956	709.3	15.3
0	58957	709.3	14.3
0	58958	709.3	13.3
0	58959	709.3	12.3
0	58960	709.3	11.3
0	58961	709.3	10.3
0	58962	709.3	9.3
0	58963	709.3	8.3
0	58964	709.3	7.3
0	58965	709.3	6.3
0	58966	709.3	5.3
0	58967	709.3	4.3
0	58968	709.3	3.3
0	58969	709.3	2.3
0	58970	709.3	1.3
0	59536	710.3	1.3
0	60321	711.3	1.3
0	60391	712.3	1.3
0	60460	713.3	1.3
0	60527	714.3	1.3
0	60594	715.3	1.3
0	60661	716.3	1.3
0	60728	717.3	1.3
0	60796	718.3	1.3
0	60907	719.3	1.3
0	60986	720.3	1.3
0	61067	721.3	1.3
0	61147	722.3	1.3
0	61225	723.3	1.3
0	61303	724.3	1.3
0	61383	725.3	1.3
0	61462	726.3	1.3
0	61543	727.3	1.3
0	61623	728.3	1.3
0	61703	729.3	1.3
0	61783	730.3	1.3
0	61864	731.3	1.3
0	61935	732.3	1.3
0	62006	733.3	1.3
0	62077	734.3	1.3
0	62148	735.3	1.3
0	62219	736.3	1.3
0	62290	737.3	1.3
0	62358	738.3	1.3
0	62711	746.3	7.3
0	62712	746.3	8.3
0	62713	746.3	6.3
0	62714	746.3	5.3
0	62715	746.3	4.3
0	62716	746.3	3.3
0	62717	746.3	2.3
0	62765	746.4	1.4
0	62829	747.4	1.4
0	62925	749.5	1.5
0	62987	750.5	1.5
0	63013	750.9	3.9
0	63063	751.5	1.5
0	63118	752.5	1.5
0	63169	753.5	1.5
0	63220	754.5	1.5
0	63271	755.5	1.5
0	63322	756.5	1.5
0	63370	757.5	1.5
0	63401	758.5	1.5
0	67106	828.4	70.4
0	67107	828.4	69.4
0	67108	828.4	68.4
0	67109	828.4	67.4
0	67110	828.4	66.4
0	67111	828.4	65.4
0	67112	828.4	64.4
0	67113	828.4	63.4
0	67114	828.4	62.4
0	67115	828.4	61.4
0	67116	828.4	60.4
0	67117	828.4	59.4
0	67118	828.4	58.4
0	67119	828.4	57.4
0	67120	828.4	56.4
0	67121	828.4	55.4
0	67122	828.4	54.4
0	67123	828.4	53.4
0	67124	828.4	52.4
0	67125	828.4	51.4
0	67126	828.4	50.4
0	67127	828.4	49.4
0	67128	828.4	48.4
0	67129	828.4	47.4
0	67130	828.4	46.4
0	67131	828.4	45.4
0	67132	828.4	44.4
0	67133	828.4	43.4
0	67134	828.4	42.4
0	67135	828.4	41.4
0	67136	828.4	40.4
0	67137	828.4	39.4
0	67138	828.4	38.4
0	67139	828.4	37.4
0	67140	828.4	36.4
0	67141	828.4	35.4
0	67142	828.4	34.4
0	67143	828.4	33.4
0	67144	828.4	32.4
0	67145	828.4	31.4
0	67146	828.4	30.4
0	67147	828.4	29.4
0	67148	828.4	28.4
0	67149	828.4	27.4
0	67150	828.4	26.4
0	67151	828.4	25.4
0	67152	828.4	24.4
0	67153	828.4	23.4
0	67154	828.4	22.4
0	67155	828.4	21.4
0	67156	828.4	20.4
0	67157	828.4	19.4
0	67158	828.4	18.4
0	67159	828.4	17.4
0	67160	828.4	16.4
0	67161	828.4	15.4
0	67162	828.4	14.4
0	67163	828.4	13.4
0	67164	828.4	12.4
0	67165	828.4	11.4
0	67166	828.4	10.4
0	67167	828.4	9.4
0	67168	828.4	8.4
0	67169	828.4	7.4
0	67170	828.4	6.4
0	67171	828.4	5.4
0	67172	828.4	4.4
0	67173	828.4	3.4
0	67174	828.4	2.4
0	67184	828.6	1.6
0	67242	829.6	1.6
0	67300	830.6	1.6
0	67360	831.6	1.6
0	67418	832.6	1.6
0	67476	833.6	1.6
0	67534	834.6	1.6
0	67595	835.6	1.6
0	67655	836.6	1.6
0	67715	837.6	1.6
0	67774	838.6	1.6
0	67832	839.6	1.6
0	67865	840.6	1.6
0	67896	841.5	1.5
0	67927	842.5	1.5
0	67960	843.5	1.5
0	67991	844.5	1.5
0	68030	845.5	1.5
0	68070	846.5	1.5
0	68103	847.5	1.5
0	68136	848.5	1.5
0	68171	849.5	1.5
0	68199	850.5	1.5
0	68227	851.5	1.5
0	68539	852.5	1.5
0	68756	853.5	1.5
0	68792	854.5	1.5
0	68828	855.5	1.5
0	68863	856.5	1.5
0	68898	857.5	1.5
0	68931	858.5	1.5
0	68963	859.5	1.5
0	68994	860.5	1.5
0	69025	861.5	1.5
0	69056	862.5	1.5
0	69163	863.5	1.5
0	69201	864.5	1.5
0	69239	865.5	1.5
0	69280	866.5	1.5
0	69319	867.5	1.5
0	69357	868.5	1.5
0	69398	869.5	1.5
0	69437	870.5	1.5
0	69476	871.5	1.5
0	84483	994.1	105.1
0	84484	994.1	104.1
0	84485	994.1	103.1
0	84486	994.1	102.1
0	84487	994.1	101.1
0	84488	994.1	100.1
0	84489	994.1	99.1
0	84490	994.1	98.1
0	84491	994.1	97.1
0	84492	994.1	96.1
0	84493	994.1	95.1
0	84494	994.1	94.1
0	84495	994.1	93.1
0	84496	994.1	92.1
0	84497	994.1	91.1
0	84498	994.1	119.1
0	84499	994.1	90.1
0	84500	994.1	116.1
0	84501	994.1	113.1
0	84502	994.1	110.1
0	84503	994.1	107.1
0	84504	994.1	121.1
0	84505	994.1	118.1
0	84506	994.1	115.1
0	84507	994.1	112.1
0	84508	994.1	109.1
0	84509	994.1	123.1
0	84510	994.1	106.1
0	84511	994.1	120.1
0	84512	994.1	117.1
0	84513	994.1	114.1
0	84514	994.1	111.1
0	84515	994.1	108.1
0	84516	994.1	122.1
0	84517	994.1	89.1
0	84518	994.1	88.1
0	84519	994.1	87.1
0	84520	994.1	86.1
0	84521	994.1	85.1
0	84522	994.1	84.1
0	84523	994.1	83.1
0	84524	994.1	82.1
0	84525	994.1	81.1
0	84526	994.1	80.1
0	84527	994.1	79.1
0	84528	994.1	78.1
0	84529	994.1	77.1
0	84530	994.1	76.1
0	84531	994.1	75.1
0	84532	994.1	74.1
0	84533	994.1	73.1
0	84534	994.1	72.1
0	84535	994.1	71.1
0	84536	994.1	70.1
0	84537	994.1	69.1
0	84538	994.1	68.1
0	84539	994.1	67.1
0	84540	994.1	66.1
0	84541	994.1	65.1
0	84542	994.1	64.1
0	84543	994.1	63.1
0	84544	994.1	62.1
0	84545	994.1	61.1
0	84546	994.1	60.1
0	84547	994.1	59.1
0	84548	994.1	58.1
0	84549	994.1	57.1
0	84550	994.1	56.1
0	84551	994.1	55.1
0	84552	994.1	54.1
0	84553	994.1	53.1
0	84554	994.1	52.1
0	84555	994.1	51.1
0	84556	994.1	50.1
0	84557	994.1	49.1
0	84558	994.1	48.1
0	84559	994.1	47.1
0	84560	994.1	46.1
0	84561	994.1	45.1
0	84562	994.1	144.1
0	84563	994.1	44.1
0	84564	994.1	236.1
0	84565	994.1	235.1
0	84566	994.1	234.1
0	84567	994.1	233.1
0	84568	994.1	232.1
0	84569	994.1	231.1
0	84570	994.1	230.1
0	84571	994.1	229.1
0	84572	994.1	228.1
0	84573	994.1	227.1
0	84574	994.1	226.1
0	84575	994.1	225.1
0	84576	994.1	224.1
0	84577	994.1	223.1
0	84578	994.1	222.1
0	84579	994.1	221.1
0	84580	994.1	220.1
0	84581	994.1	219.1
0	84582	994.1	218.1
0	84583	994.1	217.1
0	84584	994.1	216.1
0	84585	994.1	215.1
0	84586	994.1	214.1
0	84587	994.1	213.1
0	84588	994.1	212.1
0	84589	994.1	211.1
0	84590	994.1	210.1
0	84591	994.1	209.1
0	84592	994.1	208.1
0	84593	994.1	207.1
0	84594	994.1	206.1
0	84595	994.1	205.1
0	84596	994.1	204.1
0	84597	994.1	203.1
0	84598	994.1	202.1
0	84599	994.1	201.1
0	84600	994.1	200.1
0	84601	994.1	199.1
0	84602	994.1	198.1
0	84603	994.1	197.1
0	84604	994.1	196.1
0	84605	994.1	195.1
0	84606	994.1	194.1
0	84607	994.1	193.1
0	84608	994.1	192.1
0	84609	994.1	191.1
0	84610	994.1	190.1
0	84611	994.1	189.1
0	84612	994.1	188.1
0	84613	994.1	187.1
0	84614	994.1	186.1
0	84615	994.1	185.1
0	84616	994.1	184.1
0	84617	994.1	183.1
0	84618	994.1	182.1
0	84619	994.1	181.1
0	84620	994.1	180.1
0	84621	994.1	179.1
0	84622	994.1	178.1
0	84623	994.1	177.1
0	84624	994.1	176.1
0	84625	994.1	175.1
0	84626	994.1	174.1
0	84627	994.1	173.1
0	84628	994.1	172.1
0	84629	994.1	171.1
0	84630	994.1	170.1
0	84631	994.1	169.1
0	84632	994.1	168.1
0	84633	994.1	167.1
0	84634	994.1	166.1
0	84635	994.1	165.1
0	84636	994.1	164.1
0	84637	994.1	163.1
0	84638	994.1	162.1
0	84639	994.1	161.1
0	84640	994.1	160.1
0	84641	994.1	159.1
0	84642	994.1	158.1
0	84643	994.1	157.1
0	84644	994.1	156.1
0	84645	994.1	155.1
0	84646	994.1	154.1
0	84647	994.1	153.1
0	84648	994.1	152.1
0	84649	994.1	151.1
0	84650	994.1	150.1
0	84651	994.1	149.1
0	84652	994.1	148.1
0	84653	994.1	147.1
0	84654	994.1	146.1
0	84655	994.1	143.1
0	84656	994.1	43.1
0	84657	994.1	145.1
0	84658	994.1	142.1
0	84659	994.1	42.1
0	84660	994.1	141.1
0	84661	994.1	41.1
0	84662	994.1	140.1
0	84663	994.1	40.1
0	84664	994.1	139.1
0	84665	994.1	39.1
0	84666	994.1	138.1
0	84667	994.1	38.1
0	84668	994.1	137.1
0	84669	994.1	37.1
0	84670	994.1	136.1
0	84671	994.1	36.1
0	84672	994.1	135.1
0	84673	994.1	35.1
0	84674	994.1	134.1
0	84675	994.1	34.1
0	84676	994.1	133.1
0	84677	994.1	33.1
0	84678	994.1	132.1
0	84679	994.1	32.1
0	84680	994.1	131.1
0	84681	994.1	31.1
0	84682	994.1	130.1
0	84683	994.1	30.1
0	84684	994.1	129.1
0	84685	994.1	29.1
0	84686	994.1	128.1
0	84687	994.1	28.1
0	84688	994.1	127.1
0	84689	994.1	27.1
0	84690	994.1	126.1
0	84691	994.1	26.1
0	84692	994.1	125.1
0	84693	994.1	25.1
0	84694	994.1	124.1
0	84695	994.1	24.1
0	84696	994.1	123.1
0	84697	994.1	23.1
0	84698	994.1	122.1
0	84699	994.1	22.1
0	84700	994.1	121.1
0	84701	994.1	21.1
0	84702	994.1	123.1
0	84703	994.1	120.1
0	84704	994.1	20.1
0	84705	994.1	122.1
0	84706	994.1	119.1
0	84707	994.1	19.1
0	84708	994.1	121.1
0	84709	994.1	118.1
0	84710	994.1	18.1
0	84711	994.1	123.1
0	84712	994.1	120.1
0	84713	994.1	117.1
0	84714	994.1	17.1
0	84715	994.1	122.1
0	84716	994.1	119.1
0	84717	994.1	116.1
0	84718	994.1	16.1
0	84719	994.1	121.1
0	84720	994.1	118.1
0	84721	994.1	115.1
0	84722	994.1	15.1
0	84723	994.1	123.1
0	84724	994.1	120.1
0	84725	994.1	117.1
0	84726	994.1	114.1
0	84727	994.1	14.1
0	84728	994.1	122.1
0	84729	994.1	119.1
0	84730	994.1	116.1
0	84731	994.1	113.1
0	84732	994.1	13.1
0	84733	994.1	121.1
0	84734	994.1	118.1
0	84735	994.1	115.1
0	84736	994.1	112.1
0	84737	994.1	12.1
0	84738	994.1	123.1
0	84739	994.1	120.1
0	84740	994.1	117.1
0	84741	994.1	114.1
0	84742	994.1	111.1
0	84743	994.1	11.1
0	84744	994.1	122.1
0	84745	994.1	119.1
0	84746	994.1	116.1
0	84747	994.1	113.1
0	84748	994.1	110.1
0	84749	994.1	10.1
0	84750	994.1	121.1
0	84751	994.1	118.1
0	84752	994.1	115.1
0	84753	994.1	112.1
0	84754	994.1	123.1
0	84755	994.1	109.1
0	84756	994.1	9.1
0	84757	994.1	120.1
0	84758	994.1	117.1
0	84759	994.1	114.1
0	84760	994.1	111.1
0	84761	994.1	122.1
0	84762	994.1	108.1
0	84763	994.1	8.1
0	84764	994.1	119.1
0	84765	994.1	116.1
0	84766	994.1	113.1
0	84767	994.1	110.1
0	84768	994.1	121.1
0	84769	994.1	107.1
0	84770	994.1	7.1
0	84771	994.1	118.1
0	84772	994.1	115.1
0	84773	994.1	112.1
0	84774	994.1	109.1
0	84775	994.1	123.1
0	84776	994.1	120.1
0	84777	994.1	106.1
0	84778	994.1	6.1
0	84779	994.1	117.1
0	84780	994.1	114.1
0	84781	994.1	111.1
0	84782	994.1	108.1
0	84783	994.1	122.1
0	84784	994.1	5.1
0	84785	994.1	4.1
0	84786	994.1	3.1
0	84787	994.1	2.1
0	87258	994.4	1.4
0	87310	995.4	1.4
0	88097	996.4	1.4
0	88247	997.4	108.4
0	88248	997.4	107.4
0	88249	997.4	106.4
0	88250	997.4	105.4
0	88251	997.4	104.4
0	88252	997.4	103.4
0	88253	997.4	102.4
0	88254	997.4	101.4
0	88255	997.4	1.4
0	88402	998.4	101.4
0	88403	998.4	1.4
0	96503	999.4	101.4
0	96504	999.4	1.4
0	97293	1000.4	101.4
0	97294	1000.4	1.4
0	97526	1000.5	150.5
0	97527	1000.5	149.5
0	97528	1000.5	148.5
0	97529	1000.5	147.5
0	97530	1000.5	146.5
0	97531	1000.5	145.5
0	97532	1000.5	144.5
0	97533	1000.5	143.5
0	97534	1000.5	142.5
0	97535	1000.5	141.5
0	97536	1000.5	140.5
0	97537	1000.5	139.5
0	97538	1000.5	138.5
0	97539	1000.5	137.5
0	97540	1000.5	136.5
0	97541	1000.5	135.5
0	97542	1000.5	134.5
0	97543	1000.5	133.5
0	97544	1000.5	132.5
0	97545	1000.5	131.5
0	97546	1000.5	130.5
0	97807	1001.4	1.4
0	98272	1002.4	1.4
0	98395	1003.4	1.4
0	98510	1004.4	1.4
0	98589	1005.4	1.4
0	98668	1006.4	1.4
0	98747	1007.4	1.4
0	98828	1008.4	1.4
0	98901	1009.4	1.4
0	99047	1011.4	2.4
0	99048	1011.4	1.4
0	99110	1012.4	1.4
0	99161	1013.4	1.4
0	99198	1014.4	1.4
0	99247	1015.4	1.4
0	99311	1016.4	1.4
0	99379	1017.4	1.4
0	99442	1018.4	1.4
0	99542	1019.4	1.4
0	99611	1020.4	1.4
0	99664	1021.4	1.4
0	106973	1157.1	31.1
0	106974	1157.1	30.1
0	106975	1157.1	136.1
0	106976	1157.1	135.1
0	106977	1157.1	134.1
0	106978	1157.1	133.1
0	106979	1157.1	132.1
0	106980	1157.1	131.1
0	106981	1157.1	130.1
0	106982	1157.1	129.1
0	106983	1157.1	128.1
0	106984	1157.1	127.1
0	106985	1157.1	126.1
0	106986	1157.1	125.1
0	106987	1157.1	124.1
0	106988	1157.1	123.1
0	106989	1157.1	122.1
0	106990	1157.1	121.1
0	106991	1157.1	120.1
0	106992	1157.1	119.1
0	106993	1157.1	118.1
0	106994	1157.1	117.1
0	106995	1157.1	116.1
0	106996	1157.1	115.1
0	106997	1157.1	114.1
0	106998	1157.1	113.1
0	106999	1157.1	112.1
0	107000	1157.1	111.1
0	107001	1157.1	110.1
0	107002	1157.1	109.1
0	107003	1157.1	108.1
0	107004	1157.1	107.1
0	107005	1157.1	106.1
0	107006	1157.1	105.1
0	107007	1157.1	104.1
0	107008	1157.1	103.1
0	107009	1157.1	102.1
0	107010	1157.1	101.1
0	107011	1157.1	100.1
0	107012	1157.1	99.1
0	107013	1157.1	98.1
0	107014	1157.1	97.1
0	107015	1157.1	96.1
0	107016	1157.1	95.1
0	107017	1157.1	94.1
0	107018	1157.1	93.1
0	107019	1157.1	92.1
0	107020	1157.1	91.1
0	107021	1157.1	90.1
0	107022	1157.1	89.1
0	107023	1157.1	88.1
0	107024	1157.1	87.1
0	107025	1157.1	86.1
0	107026	1157.1	85.1
0	107027	1157.1	84.1
0	107028	1157.1	83.1
0	107029	1157.1	82.1
0	107030	1157.1	81.1
0	107031	1157.1	80.1
0	107032	1157.1	79.1
0	107033	1157.1	78.1
0	107034	1157.1	77.1
0	107035	1157.1	76.1
0	107036	1157.1	75.1
0	107037	1157.1	74.1
0	107038	1157.1	73.1
0	107039	1157.1	72.1
0	107040	1157.1	71.1
0	107041	1157.1	70.1
0	107042	1157.1	69.1
0	107043	1157.1	68.1
0	107044	1157.1	67.1
0	107045	1157.1	66.1
0	107046	1157.1	65.1
0	107047	1157.1	64.1
0	107048	1157.1	63.1
0	107049	1157.1	62.1
0	107050	1157.1	61.1
0	107051	1157.1	60.1
0	107052	1157.1	59.1
0	107053	1157.1	58.1
0	107054	1157.1	57.1
0	107055	1157.1	56.1
0	107056	1157.1	55.1
0	107057	1157.1	54.1
0	107058	1157.1	53.1
0	107059	1157.1	52.1
0	107060	1157.1	51.1
0	107061	1157.1	50.1
0	107062	1157.1	49.1
0	107063	1157.1	48.1
0	107064	1157.1	47.1
0	107065	1157.1	46.1
0	107066	1157.1	45.1
0	107067	1157.1	44.1
0	107068	1157.1	43.1
0	107069	1157.1	42.1
0	107070	1157.1	41.1
0	107071	1157.1	40.1
0	107072	1157.1	39.1
0	107073	1157.1	38.1
0	107074	1157.1	37.1
0	107075	1157.1	36.1
0	107076	1157.1	35.1
0	107077	1157.1	34.1
0	107078	1157.1	33.1
0	107079	1157.1	29.1
0	107080	1157.1	28.1
0	107081	1157.1	27.1
0	107082	1157.1	26.1
0	107083	1157.1	25.1
0	107084	1157.1	24.1
0	107085	1157.1	23.1
0	107086	1157.1	22.1
0	107087	1157.1	21.1
0	107088	1157.1	20.1
0	107089	1157.1	19.1
0	107090	1157.1	18.1
0	107091	1157.1	17.1
0	107092	1157.1	16.1
0	107093	1157.1	15.1
0	107094	1157.1	14.1
0	107095	1157.1	13.1
0	107096	1157.1	12.1
0	107097	1157.1	11.1
0	107098	1157.1	10.1
0	107099	1157.1	9.1
0	107100	1157.1	32.1
0	107101	1157.1	8.1
0	107102	1157.1	7.1
0	107103	1157.1	6.1
0	107104	1157.1	5.1
0	107105	1157.1	4.1
0	107106	1157.1	3.1
0	107800	1157.2	1.2
0	108524	1158.2	1.2
0	108574	1159.2	1.2
0	108624	1160.2	1.2
0	108674	1161.2	1.2
0	108724	1162.2	1.2
0	108774	1163.2	1.2
0	108824	1164.2	1.2
0	108873	1165.2	1.2
0	108922	1166.2	1.2
0	108971	1167.2	1.2
0	109023	1168.2	1.2
0	109073	1169.2	1.2
0	109125	1170.2	1.2
0	109174	1171.2	1.2
0	109223	1172.2	1.2
0	109272	1173.2	1.2
0	109321	1174.2	1.2
0	109370	1175.2	1.2
0	109420	1176.2	1.2
0	109469	1177.2	1.2
0	109520	1178.2	1.2
0	109570	1179.2	1.2
0	109622	1180.2	1.2
0	109674	1181.2	1.2
0	109725	1182.2	1.2
0	109775	1183.2	1.2
0	109824	1184.2	1.2
0	109870	1185.2	1.2
0	109953	1187.2	2.2
0	109954	1187.2	1.2
0	110014	1188.2	1.2
0	110062	1189.2	1.2
0	110110	1190.2	1.2
0	110166	1191.2	1.2
0	110258	1192.3	1.3
0	110282	1192.4	37.4
0	110360	1193.3	1.3
0	110448	1194.3	1.3
0	110522	1195.3	1.3
0	110596	1196.3	1.3
0	110670	1197.3	1.3
0	110744	1198.3	1.3
0	110819	1199.3	1.3
0	110881	1200.3	1.3
0	110941	1201.3	1.3
0	111001	1202.3	1.3
0	111061	1203.3	1.3
0	111121	1204.3	1.3
0	111181	1205.3	1.3
0	111244	1206.3	1.3
0	111306	1207.3	1.3
0	111368	1208.3	1.3
0	111430	1209.3	1.3
0	111488	1210.3	1.3
0	111540	1211.3	1.3
0	111583	1212.3	1.3
0	111626	1213.3	1.3
0	111672	1214.3	1.3
0	111716	1215.3	1.3
0	111785	1217.5	1.5
0	111826	1218.5	1.5
0	111867	1219.5	1.5
0	111908	1220.5	1.5
0	112128	1221.1	6.1
0	112159	1221.5	1.5
0	112203	1222.5	1.5
0	112256	1223.5	1.5
0	112303	1224.3	1.3
0	112577	1225.3	1.3
0	112634	1226.3	1.3
0	112695	1227.3	1.3
0	112754	1228.3	1.3
0	112914	1229.3	1.3
0	113001	1231.5	1.5
0	113024	1231.7	2.7
0	113073	1232.5	1.5
0	113122	1233.5	1.5
0	113176	1234.5	1.5
0	113227	1235.5	1.5
0	113271	1236.4	1.4
0	113320	1237.4	1.4
0	113369	1238.4	1.4
0	113418	1239.4	1.4
0	113620	1240.4	1.4
0	113675	1241.4	1.4
0	113730	1242.4	1.4
0	113784	1243.4	1.4
0	113838	1244.4	1.4
0	113893	1245.4	1.4
0	113935	1246.4	1.4
0	113980	1247.4	1.4
0	114028	1248.4	1.4
0	114072	1249.4	1.4
0	114116	1250.4	1.4
0	114303	1251.4	1.4
0	114523	1252.3	1.3
0	114582	1253.3	1.3
0	114648	1254.3	1.3
0	114713	1255.3	1.3
0	114779	1256.3	1.3
0	114980	1257.3	1.3
0	115047	1258.3	1.3
0	115113	1259.3	1.3
0	115179	1260.3	1.3
0	115247	1261.3	1.3
0	115314	1262.3	1.3
0	115384	1263.3	1.3
0	115456	1264.3	1.3
0	115526	1265.3	1.3
0	115703	1266.3	1.3
0	115788	1267.3	1.3
0	115871	1268.3	1.3
0	115954	1269.3	1.3
0	116037	1270.3	1.3
0	116118	1271.3	1.3
0	116199	1272.3	1.3
0	116280	1273.3	1.3
0	116361	1274.3	1.3
0	116442	1275.3	1.3
0	116523	1276.3	1.3
0	116602	1277.3	1.3
0	116681	1278.3	1.3
0	116763	1279.3	1.3
0	117984	1306.1	27.1
0	117985	1306.1	26.1
0	117986	1306.1	25.1
0	117987	1306.1	24.1
0	117988	1306.1	23.1
0	117989	1306.1	22.1
0	117990	1306.1	21.1
0	117991	1306.1	20.1
0	117992	1306.1	19.1
0	117993	1306.1	18.1
0	117994	1306.1	17.1
0	117995	1306.1	16.1
0	117996	1306.1	15.1
0	117997	1306.1	14.1
0	117998	1306.1	13.1
0	117999	1306.1	12.1
0	118000	1306.1	11.1
0	118001	1306.1	10.1
0	118002	1306.1	9.1
0	118003	1306.1	8.1
0	118004	1306.1	7.1
0	118005	1306.1	6.1
0	118006	1306.1	5.1
0	118007	1306.1	4.1
0	119906	1351.6	48.6
0	119907	1351.6	47.6
0	119908	1351.6	46.6
0	119909	1351.6	45.6
0	119910	1351.6	44.6
0	119911	1351.6	43.6
0	119912	1351.6	42.6
0	119913	1351.6	41.6
0	119914	1351.6	40.6
0	119915	1351.6	39.6
0	119916	1351.6	38.6
0	119917	1351.6	37.6
0	119918	1351.6	36.6
0	119919	1351.6	35.6
0	119920	1351.6	34.6
0	119921	1351.6	33.6
0	119922	1351.6	32.6
0	119923	1351.6	31.6
0	119924	1351.6	30.6
0	119925	1351.6	29.6
0	119926	1351.6	28.6
0	119927	1351.6	27.6
0	119928	1351.6	26.6
0	119929	1351.6	25.6
0	119930	1351.6	24.6
0	119931	1351.6	23.6
0	119932	1351.6	22.6
0	119933	1351.6	21.6
0	119934	1351.6	20.6
0	119935	1351.6	19.6
0	119936	1351.6	18.6
0	119937	1351.6	17.6
0	119938	1351.6	16.6
0	119939	1351.6	15.6
0	119940	1351.6	14.6
0	119941	1351.6	13.6
0	119942	1351.6	12.6
0	119943	1351.6	11.6
0	119944	1351.6	10.6
0	119945	1351.6	9.6
0	119946	1351.6	8.6
0	119947	1351.6	7.6
0	119948	1351.6	6.6
0	119949	1351.6	5.6
0	119950	1351.6	4.6
0	119951	1351.6	3.6
0	119952	1351.6	2.6
0	119953	1351.6	1.6
0	120865	1352.6	1.6
0	121367	1353.6	1.6
0	121446	1354.6	1.6
0	121525	1355.6	1.6
0	121604	1356.6	1.6
0	121683	1357.6	1.6
0	121762	1358.6	1.6
0	121841	1359.6	1.6
0	121923	1360.6	1.6
0	122000	1361.6	1.6
0	122085	1362.6	1.6
0	122150	1363.6	1.6
0	122233	1364.6	1.6
0	122299	1365.6	1.6
0	122363	1366.6	1.6
0	122427	1367.6	1.6
0	122491	1368.6	1.6
0	122555	1369.6	1.6
0	122616	1370.6	1.6
0	123005	1382.1	12.1
0	123006	1382.1	11.1
0	123007	1382.1	10.1
0	123008	1382.1	9.1
0	123009	1382.1	8.1
0	123010	1382.1	7.1
0	123011	1382.1	6.1
0	123012	1382.1	5.1
0	123013	1382.1	4.1
0	123014	1382.1	3.1
0	123015	1382.1	2.1
0	123094	1382.2	1.2
0	123160	1383.2	1.2
0	123203	1384.2	1.2
0	123246	1385.2	1.2
0	123289	1386.2	1.2
0	123335	1387.2	1.2
0	123379	1388.2	1.2
0	123423	1389.2	1.2
0	123464	1390.2	1.2
0	123509	1391.2	1.2
0	123554	1392.2	1.2
0	123597	1393.2	1.2
0	123642	1394.2	1.2
0	123685	1395.2	1.2
0	123731	1396.2	1.2
0	123774	1397.2	1.2
0	123804	1398.2	1.2
0	124008	1404.2	6.2
0	124009	1404.2	5.2
0	124010	1404.2	4.2
0	124011	1404.2	3.2
0	124012	1404.2	2.2
0	124013	1404.2	1.2
0	124093	1405.2	1.2
0	124174	1406.3	1.3
0	124244	1407.3	1.3
0	124317	1408.3	1.3
0	124388	1409.3	1.3
0	124428	1410.2	1.2
0	124466	1411.2	1.2
0	124507	1412.2	1.2
0	124548	1413.2	1.2
0	124592	1414.2	1.2
0	124635	1415.2	1.2
0	124678	1416.2	1.2
0	124723	1417.2	1.2
0	124767	1418.2	1.2
0	124853	1419.2	1.2
0	124904	1420.2	1.2
0	124955	1421.2	1.2
0	125006	1422.2	1.2
0	125057	1423.2	1.2
0	125108	1424.2	1.2
0	125159	1425.2	1.2
0	125210	1426.2	1.2
0	125261	1427.2	1.2
0	125312	1428.2	1.2
0	125363	1429.2	1.2
0	125414	1430.2	1.2
0	125465	1431.2	1.2
0	125516	1432.2	1.2
0	125567	1433.2	1.2
0	125618	1434.2	1.2
0	125669	1435.2	1.2
0	125720	1436.2	1.2
0	125776	1437.2	1.2
0	125828	1438.2	1.2
0	125880	1439.2	1.2
0	125932	1440.2	1.2
0	125987	1441.2	1.2
0	126040	1442.2	1.2
0	126089	1443.2	1.2
0	126203	1445.2	2.2
0	126204	1445.2	1.2
0	126257	1446.2	1.2
0	126306	1447.2	1.2
0	126357	1448.2	1.2
0	126404	1449.2	1.2
0	126551	1450.2	1.2
0	126604	1451.2	1.2
0	126703	1452.2	1.2
0	126756	1453.2	1.2
0	126825	1454.3	1.3
0	126880	1455.3	1.3
0	126935	1456.3	1.3
0	126990	1457.3	1.3
0	127044	1458.3	1.3
0	127099	1459.3	1.3
0	127156	1460.3	1.3
0	127210	1461.3	1.3
0	127264	1462.3	1.3
0	127317	1463.3	1.3
0	127370	1464.3	1.3
0	127423	1465.3	1.3
0	127476	1466.3	1.3
0	127528	1467.3	1.3
0	127579	1468.3	1.3
0	127627	1469.3	1.3
0	127678	1470.3	1.3
0	127725	1471.3	1.3
0	127788	1472.3	1.3
0	127844	1473.3	1.3
0	127900	1474.3	1.3
0	127956	1475.3	1.3
0	128013	1476.3	1.3
0	128069	1477.3	1.3
0	128125	1478.3	1.3
0	128181	1479.3	1.3
0	128237	1480.3	1.3
0	128304	1481.3	1.3
0	128372	1482.3	1.3
0	128429	1483.3	1.3
0	128489	1484.3	1.3
0	128547	1485.3	1.3
0	128605	1486.3	1.3
0	128666	1487.3	1.3
0	128721	1488.3	1.3
0	128774	1489.3	1.3
0	128827	1490.3	1.3
0	128880	1491.3	1.3
0	128935	1492.3	1.3
0	128989	1493.3	1.3
0	129040	1494.3	1.3
0	129122	1496.1	2.1
0	129154	1496.3	1.3
0	129208	1497.3	1.3
0	129257	1498.3	1.3
0	129302	1499.3	1.3
0	129365	1500.3	1.3
0	129418	1501.3	1.3
0	129458	1502.3	1.3
0	129513	1503.5	1.5
0	129654	1504.5	1.5
0	129718	1505.5	1.5
0	129783	1506.5	1.5
0	129837	1507.5	1.5
0	129890	1508.5	1.5
0	129958	1509.3	101.3
0	129996	1510.2	101.2
0	130035	1510.5	2.5
0	130036	1510.5	1.5
0	130080	1511.2	101.2
0	130097	1511.5	1.5
0	130153	1512.2	101.2
0	130168	1512.5	1.5
0	130210	1513.2	101.2
0	130225	1513.5	1.5
0	130256	1514.2	101.2
0	130271	1514.5	1.5
0	130302	1515.2	101.2
0	130317	1515.5	1.5
0	130348	1516.2	101.2
0	130363	1516.5	1.5
0	130394	1517.2	101.2
0	130409	1517.5	1.5
0	130440	1518.2	101.2
0	130455	1518.5	1.5
0	130486	1519.2	101.2
0	130501	1519.5	1.5
0	130532	1520.2	101.2
0	130547	1520.5	1.5
0	130578	1521.2	101.2
0	130593	1521.5	1.5
0	130625	1522.2	101.2
0	130634	1522.5	1.5
0	130664	1523.2	101.2
0	130673	1523.5	1.5
0	130703	1524.2	101.2
0	130712	1524.5	1.5
0	130742	1525.2	101.2
0	130751	1525.5	1.5
0	130781	1526.2	101.2
0	130790	1526.5	1.5
0	130820	1527.2	101.2
0	130829	1527.5	1.5
0	130859	1528.2	101.2
0	130868	1528.5	1.5
0	130898	1529.2	101.2
0	130907	1529.5	1.5
0	130937	1530.2	101.2
0	130946	1530.5	1.5
0	130976	1531.2	101.2
0	130985	1531.5	1.5
0	131018	1532.2	101.2
0	131027	1532.5	1.5
0	131114	1533.2	101.2
0	131129	1533.5	1.5
0	131181	1534.5	1.5
0	131466	1542.5	1.5
0	131503	1543.5	1.5
0	131541	1544.5	1.5
0	132352	1545.5	1.5
0	132396	1546.5	1.5
0	134007	1590.1	44.1
0	134008	1590.1	43.1
0	134009	1590.1	42.1
0	134010	1590.1	41.1
0	134011	1590.1	40.1
0	134012	1590.1	39.1
0	134013	1590.1	38.1
0	134014	1590.1	37.1
0	134015	1590.1	36.1
0	134016	1590.1	35.1
0	134017	1590.1	34.1
0	134172	1603.5	101.5
0	134197	1604.5	101.5
0	134222	1605.5	101.5
0	134247	1606.5	101.5
0	134272	1607.5	101.5
0	134296	1608.5	101.5
0	134322	1609.3	201.3
0	134446	1610.5	102.5
0	134447	1610.5	101.5
0	134490	1611.5	101.5
0	134523	1612.5	101.5
0	134555	1613.5	101.5
0	134587	1614.5	101.5
0	134619	1615.5	101.5
0	134651	1616.5	101.5
0	134683	1617.5	101.5
0	134715	1618.5	101.5
0	134747	1619.5	101.5
0	134779	1620.5	101.5
0	134813	1621.5	101.5
0	134846	1622.5	101.5
0	134879	1623.5	101.5
0	134912	1624.5	101.5
0	134945	1625.5	101.5
0	134978	1626.5	101.5
0	135011	1627.5	101.5
0	135307	1628.5	101.5
0	135917	1629.1	69.1
0	135918	1629.1	68.1
0	135919	1629.1	67.1
0	135920	1629.1	66.1
0	135921	1629.1	196.1
0	135922	1629.1	195.1
0	135923	1629.1	95.1
0	135924	1629.1	194.1
0	135925	1629.1	94.1
0	135926	1629.1	193.1
0	135927	1629.1	93.1
0	135928	1629.1	192.1
0	135929	1629.1	92.1
0	135930	1629.1	191.1
0	135931	1629.1	91.1
0	135932	1629.1	190.1
0	135933	1629.1	90.1
0	135934	1629.1	189.1
0	135935	1629.1	89.1
0	135936	1629.1	188.1
0	135937	1629.1	187.1
0	135938	1629.1	186.1
0	135939	1629.1	185.1
0	135940	1629.1	72.1
0	135941	1629.1	71.1
0	135942	1629.1	70.1
0	140785	1716.2	152.2
0	140786	1716.2	151.2
0	140787	1716.2	150.2
0	140788	1716.2	149.2
0	140789	1716.2	148.2
0	140790	1716.2	147.2
0	140791	1716.2	146.2
0	140792	1716.2	145.2
0	140793	1716.2	144.2
0	140794	1716.2	143.2
0	140795	1716.2	142.2
0	140796	1716.2	141.2
0	140797	1716.2	140.2
0	140798	1716.2	139.2
0	140799	1716.2	138.2
0	140800	1716.2	137.2
0	140801	1716.2	136.2
0	140802	1716.2	135.2
0	140803	1716.2	134.2
0	140804	1716.2	133.2
0	140805	1716.2	132.2
0	140806	1716.2	131.2
0	140807	1716.2	130.2
0	140808	1716.2	129.2
0	140809	1716.2	128.2
0	140810	1716.2	127.2
0	140811	1716.2	126.2
0	140812	1716.2	125.2
0	140813	1716.2	124.2
0	140814	1716.2	123.2
0	140815	1716.2	122.2
0	140816	1716.2	121.2
0	140817	1716.2	120.2
0	140818	1716.2	119.2
0	140819	1716.2	118.2
0	140820	1716.2	117.2
0	140821	1716.2	116.2
0	140822	1716.2	115.2
0	140823	1716.2	114.2
0	140824	1716.2	113.2
0	140825	1716.2	112.2
0	140826	1716.2	111.2
0	140827	1716.2	110.2
0	140828	1716.2	109.2
0	140829	1716.2	108.2
0	140830	1716.2	107.2
0	140831	1716.2	106.2
0	140832	1716.2	105.2
0	140833	1716.2	104.2
0	140834	1716.2	103.2
0	140835	1716.2	102.2
0	140836	1716.2	101.2
0	140837	1716.2	100.2
0	140838	1716.2	99.2
0	140839	1716.2	98.2
0	140840	1716.2	97.2
0	140841	1716.2	96.2
0	140842	1716.2	95.2
0	140843	1716.2	94.2
0	140844	1716.2	93.2
0	140845	1716.2	92.2
0	140846	1716.2	91.2
0	140847	1716.2	90.2
0	140848	1716.2	89.2
0	140849	1716.2	88.2
0	140850	1716.2	87.2
0	140851	1716.2	86.2
0	140852	1716.2	85.2
0	140853	1716.2	84.2
0	140854	1716.2	83.2
0	140855	1716.2	82.2
0	140856	1716.2	81.2
0	140857	1716.2	80.2
0	140858	1716.2	79.2
0	140859	1716.2	78.2
0	140860	1716.2	77.2
0	140861	1716.2	76.2
0	140862	1716.2	75.2
0	140863	1716.2	74.2
0	140864	1716.2	73.2
0	140865	1716.2	72.2
0	140866	1716.2	71.2
0	140867	1716.2	70.2
0	140868	1716.2	69.2
0	140869	1716.2	68.2
0	140870	1716.2	67.2
0	140871	1716.2	66.2
0	140872	1716.2	65.2
0	140873	1716.2	64.2
0	140874	1716.2	63.2
0	140875	1716.2	62.2
0	140876	1716.2	61.2
0	140877	1716.2	60.2
0	140878	1716.2	59.2
0	140879	1716.2	58.2
0	140880	1716.2	57.2
0	140881	1716.2	56.2
0	140882	1716.2	55.2
0	140883	1716.2	54.2
0	140884	1716.2	53.2
0	140885	1716.2	52.2
0	140886	1716.2	51.2
0	140887	1716.2	50.2
0	140888	1716.2	49.2
0	140889	1716.2	48.2
0	140890	1716.2	47.2
0	140891	1716.2	46.2
0	140892	1716.2	45.2
0	140893	1716.2	44.2
0	140894	1716.2	43.2
0	140895	1716.2	42.2
0	140896	1716.2	41.2
0	140897	1716.2	40.2
0	140898	1716.2	39.2
0	140899	1716.2	38.2
0	140900	1716.2	37.2
0	140901	1716.2	36.2
0	140902	1716.2	35.2
0	140903	1716.2	34.2
0	140904	1716.2	33.2
0	140905	1716.2	32.2
0	140906	1716.2	31.2
0	140907	1716.2	30.2
0	140908	1716.2	29.2
0	140909	1716.2	28.2
0	140910	1716.2	27.2
0	140911	1716.2	26.2
0	140912	1716.2	25.2
0	140913	1716.2	24.2
0	140914	1716.2	23.2
0	140915	1716.2	22.2
0	140916	1716.2	21.2
0	140917	1716.2	20.2
0	140918	1716.2	19.2
0	140919	1716.2	18.2
0	140920	1716.2	17.2
0	140921	1716.2	16.2
0	140922	1716.2	15.2
0	140923	1716.2	14.2
0	140924	1716.2	13.2
0	140925	1716.2	12.2
0	140926	1716.2	11.2
0	140927	1716.2	10.2
0	140928	1716.2	9.2
0	140929	1716.2	8.2
0	140930	1716.2	7.2
0	140931	1716.2	6.2
0	140932	1716.2	5.2
0	140933	1716.2	4.2
0	140934	1716.2	3.2
0	140935	1716.2	2.2
0	140936	1716.2	1.2
0	141742	1717.2	1.2
0	143621	1718.2	1.2
0	143688	1719.2	1.2
0	143779	1720.3	1.3
0	143862	1721.3	1.3
0	143931	1722.3	1.3
0	144003	1723.3	1.3
0	144070	1724.3	1.3
0	144201	1726.3	2.3
0	144202	1726.3	1.3
0	144285	1727.3	1.3
0	144385	1728.3	1.3
0	144483	1729.3	1.3
0	144554	1730.3	1.3
0	144625	1731.3	1.3
0	144696	1732.3	1.3
0	144767	1733.3	1.3
0	144838	1734.3	1.3
0	144909	1735.3	1.3
0	144980	1736.3	1.3
0	145050	1737.3	1.3
0	145120	1738.3	1.3
0	145188	1739.3	1.3
0	145256	1740.3	1.3
0	145327	1741.3	1.3
0	145396	1742.3	1.3
0	145465	1743.3	1.3
0	145534	1744.3	1.3
0	145603	1745.3	1.3
0	145672	1746.3	1.3
0	145740	1747.3	1.3
0	145791	1748.3	1.3
0	145854	1749.3	1.3
0	145918	1750.3	1.3
0	145994	1751.3	1.3
0	146062	1752.3	1.3
0	146141	1753.3	1.3
0	146215	1754.3	1.3
0	146289	1755.3	1.3
0	146363	1756.3	1.3
0	146437	1757.3	1.3
0	146511	1758.3	1.3
0	146579	1759.3	1.3


