version 2
run General-0-20250117-15:31:10-203070
attr configname General
attr datetime 20250117-15:31:10
attr experiment General
attr inifile shaw_exist.ini
attr iterationvars ""
attr iterationvarsf ""
attr measurement ""
attr network src.dtnsim
attr processid 203070
attr repetition 0
attr replication #0
attr resultdir results
attr runnumber 0
attr seedset 0
param dtnsim.central.contactsFile "\"contactPlan/Contacts.txt\""
param dtnsim.central.contactsFile_A "\"contactPlan/Contacts_A.txt\""
param dtnsim.central.contactsFile_B "\"contactPlan/Contacts_B.txt\""
param dtnsim.central.contactIdsToDelete_from_celestialA "\"4 17 21 22 26 29 35 37 47 59 72 74 83 94 96 101 113 122 133 134 137 145 147 149 151 152 155 172 181 182 183 187 191 194 195 199 203 204 207 210 227 228 236 237 240 241 251 254 257 260 270 273 278 279 284 312 326 328 329 332 334 335 336 341 342 343 345 360 366 369 371 372 378 383 390 396 400 409 411 413 414 427 437 438 444 454 457 460 466 471 477\""
param dtnsim.central.contactIdsToDelete_from_celestialB "\"2 3 7 9 10 12 13 14 15 20 27 28 36 39 43 55 60 63 65 71 75 78 80 81 85 87 88 90 93 97 99 109 112 115 123 139 150 157 159 160 163 166 173 174 186 189 193 202 209 224 250 253 255 261 267 274 276 281 286 289 292 305 309 313 314 315 316 318 321 324 339 340 348 349 350 351 352 359 362 363 365 370 375 376 381 382 386 387 393 394 397 402 406 408 416 420 423 425 430 435 447 450 452 453 456 462 473 476 480\""
param dtnsim.central.celestialA_nodes "\"1 2 3\""
param dtnsim.central.celestialB_nodes "\"4 5 6\""
param dtnsim.central.locallyfaultsAware true
param dtnsim.central.mode_two_celestial true
param dtnsim.nodesNumber 6
param dtnsim.node[1].icon "\"receiverdish\""
param dtnsim.node[2..5].icon "\"satellite\""
param dtnsim.node[6].icon "\"receiverdish\""
param dtnsim.node[*].dtn.routing "\"cgrModel350\""
param dtnsim.node[*].dtn.routingType "\"routeListType:allPaths-firstEnding,volumeAware:allContacts,extensionBlock:on,contactPlan:global\""
param dtnsim.node[1].app.enable true
param dtnsim.node[1].app.bundlesNumber "\"8000\""
param dtnsim.node[1].app.start "\"0\""
param dtnsim.node[1].app.destinationEid "\"6\""
param dtnsim.node[1].app.size "\"1500\""
param dtnsim.node[1].app.interval 10

vector 0 dtnsim.node[6].app appBundleReceivedDelayvec:vector ETV
attr interpolationmode none
attr source appBundleReceivedDelay
attr title "appBundleReceivedDelayvec, vector"
0	79725	69049	69049
0	79731	69049	69039
0	79737	69049	69029
0	79743	69049	69019
0	79749	69049	69009
0	79755	69049	68999
0	79761	69049	68989
0	79767	69049	68979
0	79773	69049	68969
0	79779	69049	68959
0	79785	69049	68949
0	79791	69049	68939
0	79797	69049	68929
0	79803	69049	68919
0	79809	69049	68909
0	79815	69049	68899
0	79821	69049	68889
0	79827	69049	68879
0	79833	69049	68869
0	79839	69049	68859
0	79845	69049	68849
0	79851	69049	68839
0	79857	69049	68829
0	79863	69049	68819
0	79869	69049	68809
0	79875	69049	68799
0	79881	69049	68789
0	79887	69049	68779
0	79893	69049	68769
0	79899	69049	68759
0	79905	69049	68749
0	79911	69049	68739
0	79917	69049	68729
0	79923	69049	68719
0	79929	69049	68709
0	79935	69049	68699
0	79941	69049	68689
0	79947	69049	68679
0	79953	69049	68669
0	79959	69049	68659
0	79965	69049	68649
0	79971	69049	68639
0	79977	69049	68629
0	79983	69049	68619
0	79989	69049	68609
0	79995	69049	68599
0	80001	69049	68589
0	80007	69049	68579
0	80013	69049	68569
0	80019	69049	68559
0	80025	69049	68549
0	80031	69049	68539
0	80037	69049	68529
0	80043	69049	68519
0	80049	69049	68509
0	80055	69049	68499
0	80061	69049	68489
0	80067	69049	68479
0	80073	69049	68469
0	80079	69049	68459
0	80085	69049	68449
0	80091	69049	68439
0	80097	69049	68429
0	80103	69049	68419
0	80109	69049	68409
0	80115	69049	68399
0	80121	69049	68389
0	80127	69049	68379
0	80133	69049	68369
0	80139	69049	68359
0	80145	69049	68349
0	80151	69049	68339
0	80157	69049	68329
0	80163	69049	68319
0	80169	69049	68309
0	80175	69049	68299
0	80181	69049	68289
0	80187	69049	68279
0	80193	69049	68269
0	80199	69049	68259
0	80205	69049	68249
0	80211	69049	68239
0	80217	69049	68229
0	80223	69049	68219
0	80229	69049	68209
0	80235	69049	68199
0	80241	69049	68189
0	80247	69049	68179
0	80253	69049	68169
0	80259	69049	68159
0	80265	69049	68149
0	80271	69049	68139
0	80277	69049	68129
0	80283	69049	68119
0	80289	69049	68109
0	80295	69049	68099
0	80301	69049	68089
0	80307	69049	68079
0	80313	69049	68069
0	80319	69049	68059
0	80325	69049	68049
0	80331	69049	68039
0	80337	69049	68029
0	80343	69049	68019
0	80349	69049	68009
0	80355	69049	67999
0	80361	69049	67989
0	80367	69049	67979
0	80373	69049	67969
0	80379	69049	67959
0	80385	69049	67949
0	80391	69049	67939
0	80397	69049	67929
0	80403	69049	67919
0	80409	69049	67909
0	80415	69049	67899
0	80421	69049	67889
0	80427	69049	67879
0	80433	69049	67869
0	80439	69049	67859
0	80445	69049	67849
0	80451	69049	67839
0	80457	69049	67829
0	80463	69049	67819
0	80469	69049	67809
0	80475	69049	67799
0	80481	69049	67789
0	80487	69049	67779
0	80493	69049	67769
0	80499	69049	67759
0	80505	69049	67749
0	80511	69049	67739
0	80517	69049	67729
0	80523	69049	67719
0	80529	69049	67709
0	80535	69049	67699
0	80541	69049	67689
0	80547	69049	67679
0	80553	69049	67669
0	80559	69049	67659
0	80565	69049	67649
0	80571	69049	67639
0	80577	69049	67629
0	80583	69049	67619
0	80589	69049	67609
0	80595	69049	67599
0	80601	69049	67589
0	80607	69049	67579
0	80613	69049	67569
0	80619	69049	67559
0	80625	69049	67549
0	80631	69049	67539
0	80637	69049	67529
0	80643	69049	67519
0	80649	69049	67509
0	80655	69049	67499
0	80661	69049	67489
0	80667	69049	67479
0	80673	69049	67469
0	80679	69049	67459
0	80685	69049	67449
0	80691	69049	67439
0	80697	69049	67429
0	80703	69049	67419
0	80709	69049	67409
0	80715	69049	67399
0	80721	69049	67389
0	80727	69049	67379
0	80733	69049	67369
0	80739	69049	67359
0	80745	69049	67349
0	80751	69049	67339
0	80757	69049	67329
0	80763	69049	67319
0	80769	69049	67309
0	80775	69049	67299
0	80781	69049	67289
0	80787	69049	67279
0	80793	69049	67269
0	80799	69049	67259
0	80805	69049	67249
0	80811	69049	67239
0	80817	69049	67229
0	80823	69049	67219
0	80829	69049	67209
0	80835	69049	67199
0	80841	69049	67189
0	80847	69049	67179
0	80853	69049	67169
0	80859	69049	67159
0	80865	69049	67149
0	80871	69049	67139
0	80877	69049	67129
0	80883	69049	67119
0	80889	69049	67109
0	80895	69049	67099
0	80901	69049	67089
0	80907	69049	67079
0	80913	69049	67069
0	80919	69049	67059
0	80925	69049	67049
0	80931	69049	67039
0	80937	69049	67029
0	80943	69049	67019
0	80949	69049	67009
0	80955	69049	66999
0	80961	69049	66989
0	80967	69049	66979
0	80973	69049	66969
0	80979	69049	66959
0	80985	69049	66949
0	80991	69049	66939
0	80997	69049	66929
0	81003	69049	66919
0	81009	69049	66909
0	81015	69049	66899
0	81021	69049	66889
0	81027	69049	66879
0	81033	69049	66869
0	81039	69049	66859
0	81045	69049	66849
0	81051	69049	66839
0	81057	69049	66829
0	81063	69049	66819
0	81069	69049	66809
0	81075	69049	66799
0	81081	69049	66789
0	81087	69049	66779
0	81093	69049	66769
0	81099	69049	66759
0	81105	69049	66749
0	81111	69049	66739
0	81117	69049	66729
0	81123	69049	66719
0	81129	69049	66709
0	81135	69049	66699
0	81141	69049	66689
0	81147	69049	66679
0	81153	69049	66669
0	81159	69049	66659
0	81165	69049	66649
0	81171	69049	66639
0	81177	69049	66629
0	81183	69049	66619
0	81189	69049	66609
0	81195	69049	66599
0	81201	69049	66589
0	81207	69049	66579
0	81213	69049	66569
0	81219	69049	66559
0	81225	69049	66549
0	81231	69049	66539
0	81237	69049	66529
0	81243	69049	66519
0	81249	69049	66509
0	81255	69049	66499
0	81261	69049	66489
0	81267	69049	66479
0	81273	69049	66469
0	81279	69049	66459
0	81285	69049	66449
0	81291	69049	66439
0	81297	69049	66429
0	81303	69049	66419
0	81309	69049	66409
0	81315	69049	66399
0	81321	69049	66389
0	81327	69049	66379
0	81333	69049	66369
0	81339	69049	66359
0	81345	69049	66349
0	81351	69049	66339
0	81357	69049	66329
0	81363	69049	66319
0	81369	69049	66309
0	81375	69049	66299
0	81381	69049	66289
0	81387	69049	66279
0	81393	69049	66269
0	81399	69049	66259
0	81405	69049	66249
0	81411	69049	66239
0	81417	69049	66229
0	81423	69049	66219
0	81429	69049	66209
0	81435	69049	66199
0	81441	69049	66189
0	81447	69049	66179
0	81453	69049	66169
0	81459	69049	66159
0	81465	69049	66149
0	81471	69049	66139
0	81477	69049	66129
0	81483	69049	66119
0	81489	69049	66109
0	81495	69049	66099
0	81501	69049	66089
0	81507	69049	66079
0	81513	69049	66069
0	81519	69049	66059
0	81525	69049	66049
0	81531	69049	66039
0	81537	69049	66029
0	81543	69049	66019
0	81549	69049	66009
0	81555	69049	65999
0	81561	69049	65989
0	81567	69049	65979
0	81573	69049	65969
0	81579	69049	65959
0	81585	69049	65949
0	81591	69049	65939
0	81597	69049	65929
0	81603	69049	65919
0	81609	69049	65909
0	81615	69049	65899
0	81621	69049	65889
0	81627	69049	65879
0	81633	69049	65869
0	81639	69049	65859
0	81645	69049	65849
0	81651	69049	65839
0	81657	69049	65829
0	81663	69049	65819
0	81669	69049	65809
0	81675	69049	65799
0	81681	69049	65789
0	81687	69049	65779
0	81693	69049	65769
0	81699	69049	65759
0	81705	69049	65749
0	81711	69049	65739
0	81717	69049	65729
0	81723	69049	65719
0	81729	69049	65709
0	81735	69049	65699
0	81741	69049	65689
0	81747	69049	65679
0	81753	69049	65669
0	81759	69049	65659
0	81765	69049	65649
0	81771	69049	65639
0	81777	69049	65629
0	81783	69049	65619
0	81789	69049	65609
0	81795	69049	65599
0	81801	69049	65589
0	81807	69049	65579
0	81813	69049	65569
0	81819	69049	65559
0	81825	69049	65549
0	81831	69049	65539
0	81837	69049	65529
0	81843	69049	65519
0	81849	69049	65509
0	81855	69049	65499
0	81861	69049	65489
0	81867	69049	65479
0	81873	69049	65469
0	81879	69049	65459
0	81885	69049	65449
0	81891	69049	65439
0	81897	69049	65429
0	81903	69049	65419
0	81909	69049	65409
0	81915	69049	65399
0	81921	69049	65389
0	81927	69049	65379
0	81933	69049	65369
0	81939	69049	65359
0	81945	69049	65349
0	81951	69049	65339
0	81957	69049	65329
0	81963	69049	65319
0	81969	69049	65309
0	81975	69049	65299
0	81981	69049	65289
0	81987	69049	65279
0	81993	69049	65269
0	81999	69049	65259
0	82005	69049	65249
0	82011	69049	65239
0	82017	69049	65229
0	82023	69049	65219
0	82029	69049	65209
0	82035	69049	65199
0	82041	69049	65189
0	82047	69049	65179
0	82053	69049	65169
0	82059	69049	65159
0	82065	69049	65149
0	82071	69049	65139
0	82077	69049	65129
0	82083	69049	65119
0	82089	69049	65109
0	82095	69049	65099
0	82101	69049	65089
0	82107	69049	65079
0	82113	69049	65069
0	82119	69049	65059
0	82125	69049	65049
0	82131	69049	65039
0	82137	69049	65029
0	82143	69049	65019
0	82149	69049	65009
0	82155	69049	64999
0	82161	69049	64989
0	82167	69049	64979
0	82173	69049	64969
0	82179	69049	64959
0	82185	69049	64949
0	82191	69049	64939
0	82197	69049	64929
0	82203	69049	64919
0	82209	69049	64909
0	82215	69049	64899
0	82221	69049	64889
0	82227	69049	64879
0	82233	69049	64869
0	82239	69049	64859
0	82245	69049	64849
0	82251	69049	64839
0	82257	69049	64829
0	82263	69049	64819
0	82269	69049	64809
0	82275	69049	64799
0	82281	69049	64789
0	82287	69049	64779
0	82293	69049	64769
0	82299	69049	64759
0	82305	69049	64749
0	82311	69049	64739
0	82317	69049	64729
0	82323	69049	64719
0	82329	69049	64709
0	82335	69049	64699
0	82341	69049	64689
0	82347	69049	64679
0	82353	69049	64669
0	82359	69049	64659
0	82365	69049	64649
0	82371	69049	64639
0	82377	69049	64629
0	82383	69049	64619
0	82389	69049	64609
0	82395	69049	64599
0	82401	69049	64589
0	82407	69049	64579
0	82413	69049	64569
0	82419	69049	64559
0	82425	69049	64549
0	82431	69049	64539
0	82437	69049	64529
0	82443	69049	64519
0	82449	69049	64509
0	82455	69049	64499
0	82461	69049	64489
0	82467	69049	64479
0	82473	69049	64469
0	82479	69049	64459
0	82485	69049	64449
0	82491	69049	64439
0	82497	69049	64429
0	82503	69049	64419
0	82509	69049	64409
0	82515	69049	64399
0	82521	69049	64389
0	82527	69049	64379
0	82533	69049	64369
0	82539	69049	64359
0	82545	69049	64349
0	82551	69049	64339
0	82557	69049	64329
0	82563	69049	64319
0	82569	69049	64309
0	82575	69049	64299
0	82581	69049	64289
0	82587	69049	64279
0	82593	69049	64269
0	82599	69049	64259
0	82605	69049	64249
0	82611	69049	64239
0	82617	69049	64229
0	82623	69049	64219
0	82629	69049	64209
0	82635	69049	64199
0	82641	69049	64189
0	82647	69049	64179
0	82653	69049	64169
0	82659	69049	64159
0	82665	69049	64149
0	82671	69049	64139
0	82677	69049	64129
0	82683	69049	64119
0	82689	69049	64109
0	82695	69049	64099
0	82701	69049	64089
0	82707	69049	64079
0	82713	69049	64069
0	82719	69049	64059
0	82725	69049	64049
0	82731	69049	64039
0	82737	69049	64029
0	82743	69049	64019
0	82749	69049	64009
0	82755	69049	63999
0	82761	69049	63989
0	82767	69049	63979
0	82773	69049	63969
0	82779	69049	63959
0	82785	69049	63949
0	82791	69049	63939
0	82797	69049	63929
0	82803	69049	63919
0	82809	69049	63909
0	82815	69049	63899
0	82821	69049	63889
0	82827	69049	63879
0	82833	69049	63869
0	82839	69049	63859
0	82845	69049	63849
0	82851	69049	63839
0	82857	69049	63829
0	82863	69049	63819
0	82869	69049	63809
0	82875	69049	63799
0	82881	69049	63789
0	82887	69049	63779
0	82893	69049	63769
0	82899	69049	63759
0	82905	69049	63749
0	82911	69049	63739
0	82917	69049	63729
0	82923	69049	63719
0	82929	69049	63709
0	82935	69049	63699
0	82941	69049	63689
0	82947	69049	63679
0	82953	69049	63669
0	82959	69049	63659
0	82965	69049	63649
0	82971	69049	63639
0	82977	69049	63629
0	82983	69049	63619
0	82989	69049	63609
0	82995	69049	63599
0	83001	69049	63589
0	83007	69049	63579
0	83013	69049	63569
0	83019	69049	63559
0	83025	69049	63549
0	83031	69049	63539
0	83037	69049	63529
0	83043	69049	63519
0	83049	69049	63509
0	83055	69049	63499
0	83061	69049	63489
0	83067	69049	63479
0	83073	69049	63469
0	83079	69049	63459
0	83085	69049	63449
0	83091	69049	63439
0	83097	69049	63429
0	83103	69049	63419
0	83109	69049	63409
0	83115	69049	63399
0	83121	69049	63389
0	83127	69049	63379
0	83133	69049	63369
0	83139	69049	63359
0	83145	69049	63349
0	83151	69049	63339
0	83157	69049	63329
0	83163	69049	63319
0	83169	69049	63309
0	83175	69049	63299
0	83181	69049	63289
0	83187	69049	63279
0	83193	69049	63269
0	83199	69049	63259
0	83205	69049	63249
0	83211	69049	63239
0	83217	69049	63229
0	83223	69049	63219
0	83229	69049	63209
0	83235	69049	63199
0	83241	69049	63189
0	83247	69049	63179
0	83253	69049	63169
0	83259	69049	63159
0	83265	69049	63149
0	83271	69049	63139
0	83277	69049	63129
0	83283	69049	63119
0	83289	69049	63109
0	83295	69049	63099
0	83301	69049	63089
0	83307	69049	63079
0	83313	69049	63069
0	83319	69049	63059
0	83325	69049	63049
0	83331	69049	63039
0	83337	69049	63029
0	83343	69049	63019
0	83349	69049	63009
0	83355	69049	62999
0	83361	69049	62989
0	83367	69049	62979
0	83373	69049	62969
0	83379	69049	62959
0	83385	69049	62949
0	83391	69049	62939
0	83397	69049	62929
0	83403	69049	62919
0	83409	69049	62909
0	83415	69049	62899
0	83421	69049	62889
0	83427	69049	62879
0	83433	69049	62869
0	83439	69049	62859
0	83445	69049	62849
0	83451	69049	62839
0	83457	69049	62829
0	83463	69049	62819
0	83469	69049	62809
0	83475	69049	62799
0	83481	69049	62789
0	83487	69049	62779
0	83493	69049	62769
0	83499	69049	62759
0	83505	69049	62749
0	83511	69049	62739
0	83517	69049	62729
0	83523	69049	62719
0	83529	69049	62709
0	83535	69049	62699
0	83541	69049	62689
0	83547	69049	62679
0	83553	69049	62669
0	83559	69049	62659
0	83565	69049	62649
0	83571	69049	62639
0	83577	69049	62629
0	83583	69049	62619
0	83589	69049	62609
0	83595	69049	62599
0	83601	69049	62589
0	83607	69049	62579
0	83613	69049	62569
0	83619	69049	62559
0	83625	69049	62549
0	83631	69049	62539
0	83637	69049	62529
0	83643	69049	62519
0	83649	69049	62509
0	83655	69049	62499
0	83661	69049	62489
0	83667	69049	62479
0	83673	69049	62469
0	83679	69049	62459
0	83685	69049	62449
0	83691	69049	62439
0	83697	69049	62429
0	83703	69049	62419
0	83709	69049	62409
0	83715	69049	62399
0	83721	69049	62389
0	83727	69049	62379
0	83733	69049	62369
0	83739	69049	62359
0	83745	69049	62349
0	83751	69049	62339
0	83757	69049	62329
0	83763	69049	62319
0	83769	69049	62309
0	83775	69049	62299
0	83781	69049	62289
0	83787	69049	62279
0	83793	69049	62269
0	83799	69049	62259
0	83805	69049	62249
0	83811	69049	62239
0	83817	69049	62229
0	83823	69049	62219
0	83829	69049	62209
0	83835	69049	62199
0	83841	69049	62189
0	83847	69049	62179
0	83853	69049	62169
0	83859	69049	62159
0	83865	69049	62149
0	83871	69049	62139
0	83877	69049	62129
0	83883	69049	62119
0	83889	69049	62109
0	83895	69049	62099
0	83901	69049	62089
0	83907	69049	62079
0	83913	69049	62069
0	83919	69049	62059
0	83925	69049	62049
0	83931	69049	62039
0	83937	69049	62029
0	83943	69049	62019
0	83949	69049	62009
0	83955	69049	61999
0	83961	69049	61989
0	83967	69049	61979
0	83973	69049	61969
0	83979	69049	61959
0	83985	69049	61949
0	83991	69049	61939
0	83997	69049	61929
0	84003	69049	61919
0	84009	69049	61909
0	84015	69049	61899
0	84021	69049	61889
0	84027	69049	61879
0	84033	69049	61869
0	84039	69049	61859
0	84045	69049	61849
0	84051	69049	61839
0	84057	69049	61829
0	84063	69049	61819
0	84069	69049	61809
0	84075	69049	61799
0	84081	69049	61789
0	84087	69049	61779
0	84093	69049	61769
0	84099	69049	61759
0	84105	69049	61749
0	84111	69049	61739
0	84117	69049	61729
0	84123	69049	61719
0	84129	69049	61709
0	84135	69049	61699
0	84141	69049	61689
0	84147	69049	61679
0	84153	69049	61669
0	84159	69049	61659
0	84165	69049	61649
0	84171	69049	61639
0	84177	69049	61629
0	84183	69049	61619
0	84189	69049	61609
0	84195	69049	61599
0	84201	69049	61589
0	84207	69049	61579
0	84213	69049	61569
0	84219	69049	61559
0	84225	69049	61549
0	84231	69049	61539
0	84237	69049	61529
0	84243	69049	61519
0	84249	69049	61509
0	84255	69049	61499
0	84261	69049	61489
0	84267	69049	61479
0	84273	69049	61469
0	84279	69049	61459
0	84285	69049	61449
0	84291	69049	61439
0	84297	69049	61429
0	84303	69049	61419
0	84309	69049	61409
0	84315	69049	61399
0	84321	69049	61389
0	84327	69049	61379
0	84333	69049	61369
0	84339	69049	61359
0	84345	69049	61349
0	84351	69049	61339
0	84357	69049	61329
0	84363	69049	61319
0	84369	69049	61309
0	84375	69049	61299
0	84381	69049	61289
0	84387	69049	61279
0	84393	69049	61269
0	84399	69049	61259
0	84405	69049	61249
0	84411	69049	61239
0	84417	69049	61229
0	84423	69049	61219
0	84429	69049	61209
0	84435	69049	61199
0	84441	69049	61189
0	84447	69049	61179
0	84453	69049	61169
0	84459	69049	61159
0	84465	69049	61149
0	84471	69049	61139
0	84477	69049	61129
0	84483	69049	61119
0	84489	69049	61109
0	84495	69049	61099
0	84501	69049	61089
0	84507	69049	61079
0	84513	69049	61069
0	84519	69049	61059
0	84525	69049	61049
0	84531	69049	61039
0	84537	69049	61029
0	84543	69049	61019
0	84549	69049	61009
0	84555	69049	60999
0	84561	69049	60989
0	84567	69049	60979
0	84573	69049	60969
0	84579	69049	60959
0	84585	69049	60949
0	84591	69049	60939
0	84597	69049	60929
0	84603	69049	60919
0	84609	69049	60909
0	84615	69049	60899
0	84621	69049	60889
0	84627	69049	60879
0	84633	69049	60869
0	84639	69049	60859
0	84645	69049	60849
0	84651	69049	60839
0	84657	69049	60829
0	84663	69049	60819
0	84669	69049	60809
0	84675	69049	60799
0	84681	69049	60789
0	84687	69049	60779
0	84693	69049	60769
0	84699	69049	60759
0	84705	69049	60749
0	84711	69049	60739
0	84717	69049	60729
0	84723	69049	60719
0	84729	69049	60709
0	84735	69049	60699
0	84741	69049	60689
0	84747	69049	60679
0	84753	69049	60669
0	84759	69049	60659
0	84765	69049	60649
0	84771	69049	60639
0	84777	69049	60629
0	84783	69049	60619
0	84789	69049	60609
0	84795	69049	60599
0	84801	69049	60589
0	84807	69049	60579
0	84813	69049	60569
0	84819	69049	60559
0	84825	69049	60549
0	84831	69049	60539
0	84837	69049	60529
0	84843	69049	60519
0	84849	69049	60509
0	84855	69049	60499
0	84861	69049	60489
0	84867	69049	60479
0	84873	69049	60469
0	84879	69049	60459
0	84885	69049	60449
0	84891	69049	60439
0	84897	69049	60429
0	84903	69049	60419
0	84909	69049	60409
0	84915	69049	60399
0	84921	69049	60389
0	84927	69049	60379
0	84933	69049	60369
0	84939	69049	60359
0	84945	69049	60349
0	84951	69049	60339
0	84957	69049	60329
0	84963	69049	60319
0	84969	69049	60309
0	84975	69049	60299
0	84981	69049	60289
0	84987	69049	60279
0	84993	69049	60269
0	84999	69049	60259
0	85005	69049	60249
0	85011	69049	60239
0	85017	69049	60229
0	85023	69049	60219
0	85029	69049	60209
0	85035	69049	60199
0	85041	69049	60189
0	85047	69049	60179
0	85053	69049	60169
0	85059	69049	60159
0	85065	69049	60149
0	85071	69049	60139
0	85077	69049	60129
0	85083	69049	60119
0	85089	69049	60109
0	85095	69049	60099
0	85101	69049	60089
0	85107	69049	60079
0	85113	69049	60069
0	85119	69049	60059
0	85125	69049	60049
0	85131	69049	60039
0	85137	69049	60029
0	85143	69049	60019
0	85149	69049	60009
0	85155	69049	59999
0	85161	69049	59989
0	85167	69049	59979
0	85173	69049	59969
0	85179	69049	59959
0	85185	69049	59949
0	85191	69049	59939
0	85197	69049	59929
0	85203	69049	59919
0	85209	69049	59909
0	85215	69049	59899
0	85221	69049	59889
0	85227	69049	59879
0	85233	69049	59869
0	85239	69049	59859
0	85245	69049	59849
0	85251	69049	59839
0	85257	69049	59829
0	85263	69049	59819
0	85269	69049	59809
0	85275	69049	59799
0	85281	69049	59789
0	85287	69049	59779
0	85293	69049	59769
0	85299	69049	59759
0	85305	69049	59749
0	85311	69049	59739
0	85317	69049	59729
0	85323	69049	59719
0	85329	69049	59709
0	85335	69049	59699
0	85341	69049	59689
0	85347	69049	59679
0	85353	69049	59669
0	85359	69049	59659
0	85365	69049	59649
0	85371	69049	59639
0	85377	69049	59629
0	85383	69049	59619
0	85389	69049	59609
0	85395	69049	59599
0	85401	69049	59589
0	85407	69049	59579
0	85413	69049	59569
0	85419	69049	59559
0	85425	69049	59549
0	85431	69049	59539
0	85437	69049	59529
0	85443	69049	59519
0	85449	69049	59509
0	85455	69049	59499
0	85461	69049	59489
0	85467	69049	59479
0	85473	69049	59469
0	85479	69049	59459
0	85485	69049	59449
0	85491	69049	59439
0	85497	69049	59429
0	85503	69049	59419
0	85509	69049	59409
0	85515	69049	59399
0	85521	69049	59389
0	85527	69049	59379
0	85533	69049	59369
0	85539	69049	59359
0	85545	69049	59349
0	85551	69049	59339
0	85557	69049	59329
0	85563	69049	59319
0	85569	69049	59309
0	85575	69049	59299
0	85581	69049	59289
0	85587	69049	59279
0	85593	69049	59269
0	85599	69049	59259
0	85605	69049	59249
0	85611	69049	59239
0	85617	69049	59229
0	85623	69049	59219
0	85629	69049	59209
0	85635	69049	59199
0	85641	69049	59189
0	85647	69049	59179
0	85653	69049	59169
0	85659	69049	59159
0	85665	69049	59149
0	85671	69049	59139
0	85677	69049	59129
0	85683	69049	59119
0	85689	69049	59109
0	85695	69049	59099
0	85701	69049	59089
0	85707	69049	59079
0	85713	69049	59069
0	85719	69049	59059
0	85725	69049	59049
0	85731	69049	59039
0	85737	69049	59029
0	85743	69049	59019
0	85749	69049	59009
0	85755	69049	58999
0	85761	69049	58989
0	85767	69049	58979
0	85773	69049	58969
0	85779	69049	58959
0	85785	69049	58949
0	85791	69049	58939
0	85797	69049	58929
0	85803	69049	58919
0	85809	69049	58909
0	85815	69049	58899
0	85821	69049	58889
0	85827	69049	58879
0	85833	69049	58869
0	85839	69049	58859
0	85845	69049	58849
0	85851	69049	58839
0	85857	69049	58829
0	85863	69049	58819
0	85869	69049	58809
0	85875	69049	58799
0	85881	69049	58789
0	85887	69049	58779
0	85893	69049	58769
0	85899	69049	58759
0	85905	69049	58749
0	85911	69049	58739
0	85917	69049	58729
0	85923	69049	58719
0	85929	69049	58709
0	85935	69049	58699
0	85941	69049	58689
0	85947	69049	58679
0	85953	69049	58669
0	85959	69049	58659
0	85965	69049	58649
0	85971	69049	58639
0	85977	69049	58629
0	85983	69049	58619
0	85989	69049	58609
0	85995	69049	58599
0	86001	69049	58589
0	86007	69049	58579
0	86013	69049	58569
0	86019	69049	58559
0	86025	69049	58549
0	86031	69049	58539
0	86037	69049	58529
0	86043	69049	58519
0	86049	69049	58509
0	86055	69049	58499
0	86061	69049	58489
0	86067	69049	58479
0	86073	69049	58469
0	86079	69049	58459
0	86085	69049	58449
0	86091	69049	58439
0	86097	69049	58429
0	86103	69049	58419
0	86109	69049	58409
0	86115	69049	58399
0	86121	69049	58389
0	86127	69049	58379
0	86133	69049	58369
0	86139	69049	58359
0	86145	69049	58349
0	86151	69049	58339
0	86157	69049	58329
0	86163	69049	58319
0	86169	69049	58309
0	86175	69049	58299
0	86181	69049	58289
0	86187	69049	58279
0	86193	69049	58269
0	86199	69049	58259
0	86205	69049	58249
0	86211	69049	58239
0	86217	69049	58229
0	86223	69049	58219
0	86229	69049	58209
0	86235	69049	58199
0	86241	69049	58189
0	86247	69049	58179
0	86253	69049	58169
0	86259	69049	58159
0	86265	69049	58149
0	86271	69049	58139
0	86277	69049	58129
0	86283	69049	58119
0	86289	69049	58109
0	86295	69049	58099
0	86301	69049	58089
0	86307	69049	58079
0	86313	69049	58069
0	86319	69049	58059
0	86325	69049	58049
0	86331	69049	58039
0	86337	69049	58029
0	86343	69049	58019
0	86349	69049	58009
0	86355	69049	57999
0	86361	69049	57989
0	86367	69049	57979
0	86373	69049	57969
0	86379	69049	57959
0	86385	69049	57949
0	86391	69049	57939
0	86397	69049	57929
0	86403	69049	57919
0	86409	69049	57909
0	86415	69049	57899
0	86421	69049	57889
0	86427	69049	57879
0	86433	69049	57869
0	86439	69049	57859
0	86445	69049	57849
0	86451	69049	57839
0	86457	69049	57829
0	86463	69049	57819
0	86469	69049	57809
0	86475	69049	57799
0	86481	69049	57789
0	86487	69049	57779
0	86493	69049	57769
0	86499	69049	57759
0	86505	69049	57749
0	86511	69049	57739
0	86517	69049	57729
0	86523	69049	57719
0	86529	69049	57709
0	86535	69049	57699
0	86541	69049	57689
0	86547	69049	57679
0	86553	69049	57669
0	86559	69049	57659
0	86565	69049	57649
0	86571	69049	57639
0	86577	69049	57629
0	86583	69049	57619
0	86589	69049	57609
0	86595	69049	57599
0	86601	69049	57589
0	86607	69049	57579
0	86613	69049	57569
0	86619	69049	57559
0	86625	69049	57549
0	86631	69049	57539
0	86637	69049	57529
0	86643	69049	57519
0	86649	69049	57509
0	86655	69049	57499
0	86661	69049	57489
0	86667	69049	57479
0	86673	69049	57469
0	86679	69049	57459
0	86685	69049	57449
0	86691	69049	57439
0	86697	69049	57429
0	86703	69049	57419
0	86709	69049	57409
0	86715	69049	57399
0	86721	69049	57389
0	86727	69049	57379
0	86733	69049	57369
0	86739	69049	57359
0	86745	69049	57349
0	86751	69049	57339
0	86757	69049	57329
0	86763	69049	57319
0	86769	69049	57309
0	86775	69049	57299
0	86781	69049	57289
0	86787	69049	57279
0	86793	69049	57269
0	86799	69049	57259
0	86805	69049	57249
0	86811	69049	57239
0	86817	69049	57229
0	86823	69049	57219
0	86829	69049	57209
0	86835	69049	57199
0	86841	69049	57189
0	86847	69049	57179
0	86853	69049	57169
0	86859	69049	57159
0	86865	69049	57149
0	86871	69049	57139
0	86877	69049	57129
0	86883	69049	57119
0	86889	69049	57109
0	86895	69049	57099
0	86901	69049	57089
0	86907	69049	57079
0	86913	69049	57069
0	86919	69049	57059
0	86925	69049	57049
0	86931	69049	57039
0	86937	69049	57029
0	86943	69049	57019
0	86949	69049	57009
0	86955	69049	56999
0	86961	69049	56989
0	86967	69049	56979
0	86973	69049	56969
0	86979	69049	56959
0	86985	69049	56949
0	86991	69049	56939
0	86997	69049	56929
0	87003	69049	56919
0	87009	69049	56909
0	87015	69049	56899
0	87021	69049	56889
0	87027	69049	56879
0	87033	69049	56869
0	87039	69049	56859
0	87045	69049	56849
0	87051	69049	56839
0	87057	69049	56829
0	87063	69049	56819
0	87069	69049	56809
0	87075	69049	56799
0	87081	69049	56789
0	87087	69049	56779
0	87093	69049	56769
0	87099	69049	56759
0	87105	69049	56749
0	87111	69049	56739
0	87117	69049	56729
0	87123	69049	56719
0	87129	69049	56709
0	87135	69049	56699
0	87141	69049	56689
0	87147	69049	56679
0	87153	69049	56669
0	87159	69049	56659
0	87165	69049	56649
0	87171	69049	56639
0	87177	69049	56629
0	87183	69049	56619
0	87189	69049	56609
0	87195	69049	56599
0	87201	69049	56589
0	87207	69049	56579
0	87213	69049	56569
0	87219	69049	56559
0	87225	69049	56549
0	87231	69049	56539
0	87237	69049	56529
0	87243	69049	56519
0	87249	69049	56509
0	87255	69049	56499
0	87261	69049	56489
0	87267	69049	56479
0	87273	69049	56469
0	87279	69049	56459
0	87285	69049	56449
0	87291	69049	56439
0	87297	69049	56429
0	87303	69049	56419
0	87309	69049	56409
0	87315	69049	56399
0	87321	69049	56389
0	87327	69049	56379
0	87333	69049	56369
0	87339	69049	56359
0	87345	69049	56349
0	87351	69049	56339
0	87357	69049	56329
0	87363	69049	56319
0	87369	69049	56309
0	87375	69049	56299
0	87381	69049	56289
0	87387	69049	56279
0	87393	69049	56269
0	87399	69049	56259
0	87405	69049	56249
0	87411	69049	56239
0	87417	69049	56229
0	87423	69049	56219
0	87429	69049	56209
0	87435	69049	56199
0	87441	69049	56189
0	87447	69049	56179
0	87453	69049	56169
0	87459	69049	56159
0	87465	69049	56149
0	87471	69049	56139
0	87477	69049	56129
0	87483	69049	56119
0	87489	69049	56109
0	87495	69049	56099
0	87501	69049	56089
0	87507	69049	56079
0	87513	69049	56069
0	87519	69049	56059
0	87525	69049	56049
0	87531	69049	56039
0	87537	69049	56029
0	87543	69049	56019
0	87549	69049	56009
0	87555	69049	55999
0	87561	69049	55989
0	87567	69049	55979
0	87573	69049	55969
0	87579	69049	55959
0	87585	69049	55949
0	87591	69049	55939
0	87597	69049	55929
0	87603	69049	55919
0	87609	69049	55909
0	87615	69049	55899
0	87621	69049	55889
0	87627	69049	55879
0	87633	69049	55869
0	87639	69049	55859
0	87645	69049	55849
0	87651	69049	55839
0	87657	69049	55829
0	87663	69049	55819
0	87669	69049	55809
0	87675	69049	55799
0	87681	69049	55789
0	87687	69049	55779
0	87693	69049	55769
0	87699	69049	55759
0	87705	69049	55749
0	87711	69049	55739
0	87717	69049	55729
0	87723	69049	55719
0	87729	69049	55709
0	87735	69049	55699
0	87741	69049	55689
0	87747	69049	55679
0	87753	69049	55669
0	87759	69049	55659
0	87765	69049	55649
0	87771	69049	55639
0	87777	69049	55629
0	87783	69049	55619
0	87789	69049	55609
0	87795	69049	55599
0	87801	69049	55589
0	87807	69049	55579
0	87813	69049	55569
0	87819	69049	55559
0	87825	69049	55549
0	87831	69049	55539
0	87837	69049	55529
0	87843	69049	55519
0	87849	69049	55509
0	87855	69049	55499
0	87861	69049	55489
0	87867	69049	55479
0	87873	69049	55469
0	87879	69049	55459
0	87885	69049	55449
0	87891	69049	55439
0	87897	69049	55429
0	87903	69049	55419
0	87909	69049	55409
0	87915	69049	55399
0	87921	69049	55389
0	87927	69049	55379
0	87933	69049	55369
0	87939	69049	55359
0	87945	69049	55349
0	87951	69049	55339
0	87957	69049	55329
0	87963	69049	55319
0	87969	69049	55309
0	87975	69049	55299
0	87981	69049	55289
0	87987	69049	55279
0	87993	69049	55269
0	87999	69049	55259
0	88005	69049	55249
0	88011	69049	55239
0	88017	69049	55229
0	88023	69049	55219
0	88029	69049	55209
0	88035	69049	55199
0	88041	69049	55189
0	88047	69049	55179
0	88053	69049	55169
0	88059	69049	55159
0	88065	69049	55149
0	88071	69049	55139
0	88077	69049	55129
0	88083	69049	55119
0	88089	69049	55109
0	88095	69049	55099
0	88101	69049	55089
0	88107	69049	55079
0	88113	69049	55069
0	88119	69049	55059
0	88125	69049	55049
0	88131	69049	55039
0	88137	69049	55029
0	88143	69049	55019
0	88149	69049	55009
0	88155	69049	54999
0	88161	69049	54989
0	88167	69049	54979
0	88173	69049	54969
0	88179	69049	54959
0	88185	69049	54949
0	88191	69049	54939
0	88197	69049	54929
0	88203	69049	54919
0	88209	69049	54909
0	88215	69049	54899
0	88221	69049	54889
0	88227	69049	54879
0	88233	69049	54869
0	88239	69049	54859
0	88245	69049	54849
0	88251	69049	54839
0	88257	69049	54829
0	88263	69049	54819
0	88269	69049	54809
0	88275	69049	54799
0	88281	69049	54789
0	88287	69049	54779
0	88293	69049	54769
0	88299	69049	54759
0	88305	69049	54749
0	88311	69049	54739
0	88317	69049	54729
0	88323	69049	54719
0	88329	69049	54709
0	88335	69049	54699
0	88341	69049	54689
0	88347	69049	54679
0	88353	69049	54669
0	88359	69049	54659
0	88365	69049	54649
0	88371	69049	54639
0	88377	69049	54629
0	88383	69049	54619
0	88389	69049	54609
0	88395	69049	54599
0	88401	69049	54589
0	88407	69049	54579
0	88413	69049	54569
0	88419	69049	54559
0	88425	69049	54549
0	88431	69049	54539
0	88437	69049	54529
0	88443	69049	54519
0	88449	69049	54509
0	88455	69049	54499
0	88461	69049	54489
0	88467	69049	54479
0	88473	69049	54469
0	88479	69049	54459
0	88485	69049	54449
0	88491	69049	54439
0	88497	69049	54429
0	88503	69049	54419
0	88509	69049	54409
0	88515	69049	54399
0	88521	69049	54389
0	88527	69049	54379
0	88533	69049	54369
0	88539	69049	54359
0	88545	69049	54349
0	88551	69049	54339
0	88557	69049	54329
0	88563	69049	54319
0	88569	69049	54309
0	88575	69049	54299
0	88581	69049	54289
0	88587	69049	54279
0	88593	69049	54269
0	88599	69049	54259
0	88605	69049	54249
0	88611	69049	54239
0	88617	69049	54229
0	88623	69049	54219
0	88629	69049	54209
0	88635	69049	54199
0	88641	69049	54189
0	88647	69049	54179
0	88653	69049	54169
0	88659	69049	54159
0	88665	69049	54149
0	88671	69049	54139
0	88677	69049	54129
0	88683	69049	54119
0	88689	69049	54109
0	88695	69049	54099
0	88701	69049	54089
0	88707	69049	54079
0	88713	69049	54069
0	88719	69049	54059
0	88725	69049	54049
0	88731	69049	54039
0	88737	69049	54029
0	88743	69049	54019
0	88749	69049	54009
0	88755	69049	53999
0	88761	69049	53989
0	88767	69049	53979
0	88773	69049	53969
0	88779	69049	53959
0	88785	69049	53949
0	88791	69049	53939
0	88797	69049	53929
0	88803	69049	53919
0	88809	69049	53909
0	88815	69049	53899
0	88821	69049	53889
0	88827	69049	53879
0	88833	69049	53869
0	88839	69049	53859
0	88845	69049	53849
0	88851	69049	53839
0	88857	69049	53829
0	88863	69049	53819
0	88869	69049	53809
0	88875	69049	53799
0	88881	69049	53789
0	88887	69049	53779
0	88893	69049	53769
0	88899	69049	53759
0	88905	69049	53749
0	88911	69049	53739
0	88917	69049	53729
0	88923	69049	53719
0	88929	69049	53709
0	88935	69049	53699
0	88941	69049	53689
0	88947	69049	53679
0	88953	69049	53669
0	88959	69049	53659
0	88965	69049	53649
0	88971	69049	53639
0	88977	69049	53629
0	88983	69049	53619
0	88989	69049	53609
0	88995	69049	53599
0	89001	69049	53589
0	89007	69049	53579
0	89013	69049	53569
0	89019	69049	53559
0	89025	69049	53549
0	89031	69049	53539
0	89037	69049	53529
0	89043	69049	53519
0	89049	69049	53509
0	89055	69049	53499
0	89061	69049	53489
0	89067	69049	53479
0	89073	69049	53469
0	89079	69049	53459
0	89085	69049	53449
0	89091	69049	53439
0	89097	69049	53429
0	89103	69049	53419
0	89109	69049	53409
0	89115	69049	53399
0	89121	69049	53389
0	89127	69049	53379
0	89133	69049	53369
0	89139	69049	53359
0	89145	69049	53349
0	89151	69049	53339
0	89157	69049	53329
0	89163	69049	53319
0	89169	69049	53309
0	89175	69049	53299
0	89181	69049	53289
0	89187	69049	53279
0	89193	69049	53269
0	89199	69049	53259
0	89205	69049	53249
0	89211	69049	53239
0	89217	69049	53229
0	89223	69049	53219
0	89229	69049	53209
0	89235	69049	53199
0	89241	69049	53189
0	89247	69049	53179
0	89253	69049	53169
0	89259	69049	53159
0	89265	69049	53149
0	89271	69049	53139
0	89277	69049	53129
0	89283	69049	53119
0	89289	69049	53109
0	89295	69049	53099
0	89301	69049	53089
0	89307	69049	53079
0	89313	69049	53069
0	89319	69049	53059
0	89325	69049	53049
0	89331	69049	53039
0	89337	69049	53029
0	89343	69049	53019
0	89349	69049	53009
0	89355	69049	52999
0	89361	69049	52989
0	89367	69049	52979
0	89373	69049	52969
0	89379	69049	52959
0	89385	69049	52949
0	89391	69049	52939
0	89397	69049	52929
0	89403	69049	52919
0	89409	69049	52909
0	89415	69049	52899
0	89421	69049	52889
0	89427	69049	52879
0	89433	69049	52869
0	89439	69049	52859
0	89445	69049	52849
0	89451	69049	52839
0	89457	69049	52829
0	89463	69049	52819
0	89469	69049	52809
0	89475	69049	52799
0	89481	69049	52789
0	89487	69049	52779
0	89493	69049	52769
0	89499	69049	52759
0	89505	69049	52749
0	89511	69049	52739
0	89517	69049	52729
0	89523	69049	52719
0	89529	69049	52709
0	89535	69049	52699
0	89541	69049	52689
0	89547	69049	52679
0	89553	69049	52669
0	89559	69049	52659
0	89565	69049	52649
0	89571	69049	52639
0	89577	69049	52629
0	89583	69049	52619
0	89589	69049	52609
0	89595	69049	52599
0	89601	69049	52589
0	89607	69049	52579
0	89613	69049	52569
0	89619	69049	52559
0	89625	69049	52549
0	89631	69049	52539
0	89637	69049	52529
0	89643	69049	52519
0	89649	69049	52509
0	89655	69049	52499
0	89661	69049	52489
0	89667	69049	52479
0	89673	69049	52469
0	89679	69049	52459
0	89685	69049	52449
0	89691	69049	52439
0	89697	69049	52429
0	89703	69049	52419
0	89709	69049	52409
0	89715	69049	52399
0	89721	69049	52389
0	89727	69049	52379
0	89733	69049	52369
0	89739	69049	52359
0	89745	69049	52349
0	89751	69049	52339
0	89757	69049	52329
0	89763	69049	52319
0	89769	69049	52309
0	89775	69049	52299
0	89781	69049	52289
0	89787	69049	52279
0	89793	69049	52269
0	89799	69049	52259
0	89805	69049	52249
0	89811	69049	52239
0	89817	69049	52229
0	89823	69049	52219
0	89829	69049	52209
0	89835	69049	52199
0	89841	69049	52189
0	89847	69049	52179
0	89853	69049	52169
0	89859	69049	52159
0	89865	69049	52149
0	89871	69049	52139
0	89877	69049	52129
0	89883	69049	52119
0	89889	69049	52109
0	89895	69049	52099
0	89901	69049	52089
0	89907	69049	52079
0	89913	69049	52069
0	89919	69049	52059
0	89925	69049	52049
0	89931	69049	52039
0	89937	69049	52029
0	89943	69049	52019
0	89949	69049	52009
0	89955	69049	51999
0	89961	69049	51989
0	89967	69049	51979
0	89973	69049	51969
0	89979	69049	51959
0	89985	69049	51949
0	89991	69049	51939
0	89997	69049	51929
0	90003	69049	51919
0	90009	69049	51909
0	90015	69049	51899
0	90021	69049	51889
0	90027	69049	51879
0	90033	69049	51869
0	90039	69049	51859
0	90045	69049	51849
0	90051	69049	51839
0	90057	69049	51829
0	90063	69049	51819
0	90069	69049	51809
0	90075	69049	51799
0	90081	69049	51789
0	90087	69049	51779
0	90093	69049	51769
0	90099	69049	51759
0	90105	69049	51749
0	90111	69049	51739
0	90117	69049	51729
0	90123	69049	51719
0	90129	69049	51709
0	90135	69049	51699
0	90141	69049	51689
0	90147	69049	51679
0	90153	69049	51669
0	90159	69049	51659
0	90165	69049	51649
0	90171	69049	51639
0	90177	69049	51629
0	90183	69049	51619
0	90189	69049	51609
0	90195	69049	51599
0	90201	69049	51589
0	90207	69049	51579
0	90213	69049	51569
0	90219	69049	51559
0	90225	69049	51549
0	90231	69049	51539
0	90237	69049	51529
0	90243	69049	51519
0	90249	69049	51509
0	90255	69049	51499
0	90261	69049	51489
0	90267	69049	51479
0	90273	69049	51469
0	90279	69049	51459
0	90285	69049	51449
0	90291	69049	51439
0	90297	69049	51429
0	90303	69049	51419
0	90309	69049	51409
0	90315	69049	51399
0	90321	69049	51389
0	90327	69049	51379
0	90333	69049	51369
0	90339	69049	51359
0	90345	69049	51349
0	90351	69049	51339
0	90357	69049	51329
0	90363	69049	51319
0	90369	69049	51309
0	90375	69049	51299
0	90381	69049	51289
0	90387	69049	51279
0	90393	69049	51269
0	90399	69049	51259
0	90405	69049	51249
0	90411	69049	51239
0	90417	69049	51229
0	90423	69049	51219
0	90429	69049	51209
0	90435	69049	51199
0	90441	69049	51189
0	90447	69049	51179
0	90453	69049	51169
0	90459	69049	51159
0	90465	69049	51149
0	90471	69049	51139
0	90477	69049	51129
0	90483	69049	51119
0	90489	69049	51109
0	90495	69049	51099
0	90501	69049	51089
0	90507	69049	51079
0	90513	69049	51069
0	90519	69049	51059
0	90525	69049	51049
0	90531	69049	51039
0	90537	69049	51029
0	90543	69049	51019
0	90549	69049	51009
0	90555	69049	50999
0	90561	69049	50989
0	90567	69049	50979
0	90573	69049	50969
0	90579	69049	50959
0	90585	69049	50949
0	90591	69049	50939
0	90597	69049	50929
0	90603	69049	50919
0	90609	69049	50909
0	90615	69049	50899
0	90621	69049	50889
0	90627	69049	50879
0	90633	69049	50869
0	90639	69049	50859
0	90645	69049	50849
0	90651	69049	50839
0	90657	69049	50829
0	90663	69049	50819
0	90669	69049	50809
0	90675	69049	50799
0	90681	69049	50789
0	90687	69049	50779
0	90693	69049	50769
0	90699	69049	50759
0	90705	69049	50749
0	90711	69049	50739
0	90717	69049	50729
0	90723	69049	50719
0	90729	69049	50709
0	90735	69049	50699
0	90741	69049	50689
0	90747	69049	50679
0	90753	69049	50669
0	90759	69049	50659
0	90765	69049	50649
0	90771	69049	50639
0	90777	69049	50629
0	90783	69049	50619
0	90789	69049	50609
0	90795	69049	50599
0	90801	69049	50589
0	90807	69049	50579
0	90813	69049	50569
0	90819	69049	50559
0	90825	69049	50549
0	90831	69049	50539
0	90837	69049	50529
0	90843	69049	50519
0	90849	69049	50509
0	90855	69049	50499
0	90861	69049	50489
0	90867	69049	50479
0	90873	69049	50469
0	90879	69049	50459
0	90885	69049	50449
0	90891	69049	50439
0	90897	69049	50429
0	90903	69049	50419
0	90909	69049	50409
0	90915	69049	50399
0	90921	69049	50389
0	90927	69049	50379
0	90933	69049	50369
0	90939	69049	50359
0	90945	69049	50349
0	90951	69049	50339
0	90957	69049	50329
0	90963	69049	50319
0	90969	69049	50309
0	90975	69049	50299
0	90981	69049	50289
0	90987	69049	50279
0	90993	69049	50269
0	90999	69049	50259
0	91005	69049	50249
0	91011	69049	50239
0	91017	69049	50229
0	91023	69049	50219
0	91029	69049	50209
0	91035	69049	50199
0	91041	69049	50189
0	91047	69049	50179
0	91053	69049	50169
0	91059	69049	50159
0	91065	69049	50149
0	91071	69049	50139
0	91077	69049	50129
0	91083	69049	50119
0	91089	69049	50109
0	91095	69049	50099
0	91101	69049	50089
0	91107	69049	50079
0	91113	69049	50069
0	91119	69049	50059
0	91125	69049	50049
0	91131	69049	50039
0	91137	69049	50029
0	91143	69049	50019
0	91149	69049	50009
0	91155	69049	49999
0	91161	69049	49989
0	91167	69049	49979
0	91173	69049	49969
0	91179	69049	49959
0	91185	69049	49949
0	91191	69049	49939
0	91197	69049	49929
0	91203	69049	49919
0	91209	69049	49909
0	91215	69049	49899
0	91221	69049	49889
0	91227	69049	49879
0	91233	69049	49869
0	91239	69049	49859
0	91245	69049	49849
0	91251	69049	49839
0	91257	69049	49829
0	91263	69049	49819
0	91269	69049	49809
0	91275	69049	49799
0	91281	69049	49789
0	91287	69049	49779
0	91293	69049	49769
0	91299	69049	49759
0	91305	69049	49749
0	91311	69049	49739
0	91317	69049	49729
0	91323	69049	49719
0	91329	69049	49709
0	91335	69049	49699
0	91341	69049	49689
0	91347	69049	49679
0	91353	69049	49669
0	91359	69049	49659
0	91365	69049	49649
0	91371	69049	49639
0	91377	69049	49629
0	91383	69049	49619
0	91389	69049	49609
0	91395	69049	49599
0	91401	69049	49589
0	91407	69049	49579
0	91413	69049	49569
0	91419	69049	49559
0	91425	69049	49549
0	91431	69049	49539
0	91437	69049	49529
0	91443	69049	49519
0	91449	69049	49509
0	91455	69049	49499
0	91461	69049	49489
0	91467	69049	49479
0	91473	69049	49469
0	91479	69049	49459
0	91485	69049	49449
0	91491	69049	49439
0	91497	69049	49429
0	91503	69049	49419
0	91509	69049	49409
0	91515	69049	49399
0	91521	69049	49389
0	91527	69049	49379
0	91533	69049	49369
0	91539	69049	49359
0	91545	69049	49349
0	91551	69049	49339
0	91557	69049	49329
0	91563	69049	49319
0	91569	69049	49309
0	91575	69049	49299
0	91581	69049	49289
0	91587	69049	49279
0	91593	69049	49269
0	91599	69049	49259
0	91605	69049	49249
0	91611	69049	49239
0	91617	69049	49229
0	91623	69049	49219
0	91629	69049	49209
0	91635	69049	49199
0	91641	69049	49189
0	91647	69049	49179
0	91653	69049	49169
0	91659	69049	49159
0	91665	69049	49149
0	91671	69049	49139
0	91677	69049	49129
0	91683	69049	49119
0	91689	69049	49109
0	91695	69049	49099
0	91701	69049	49089
0	91707	69049	49079
0	91713	69049	49069
0	91719	69049	49059
0	91725	69049	49049
0	91731	69049	49039
0	91737	69049	49029
0	91743	69049	49019
0	91749	69049	49009
0	91755	69049	48999
0	91761	69049	48989
0	91767	69049	48979
0	91773	69049	48969
0	91779	69049	48959
0	91785	69049	48949
0	91791	69049	48939
0	91797	69049	48929
0	91803	69049	48919
0	91809	69049	48909
0	91815	69049	48899
0	91821	69049	48889
0	91827	69049	48879
0	91833	69049	48869
0	91839	69049	48859
0	91845	69049	48849
0	91851	69049	48839
0	91857	69049	48829
0	91863	69049	48819
0	91869	69049	48809
0	91875	69049	48799
0	91881	69049	48789
0	91887	69049	48779
0	91893	69049	48769
0	91899	69049	48759
0	91905	69049	48749
0	91911	69049	48739
0	91917	69049	48729
0	91923	69049	48719
0	91929	69049	48709
0	91935	69049	48699
0	91941	69049	48689
0	91947	69049	48679
0	91953	69049	48669
0	91959	69049	48659
0	91965	69049	48649
0	91971	69049	48639
0	91977	69049	48629
0	91983	69049	48619
0	91989	69049	48609
0	91995	69049	48599
0	92001	69049	48589
0	92007	69049	48579
0	92013	69049	48569
0	92019	69049	48559
0	92025	69049	48549
0	92031	69049	48539
0	92037	69049	48529
0	92043	69049	48519
0	92049	69049	48509
0	92055	69049	48499
0	92061	69049	48489
0	92067	69049	48479
0	92073	69049	48469
0	92079	69049	48459
0	92085	69049	48449
0	92091	69049	48439
0	92097	69049	48429
0	92103	69049	48419
0	92109	69049	48409
0	92115	69049	48399
0	92121	69049	48389
0	92127	69049	48379
0	92133	69049	48369
0	92139	69049	48359
0	92145	69049	48349
0	92151	69049	48339
0	92157	69049	48329
0	92163	69049	48319
0	92169	69049	48309
0	92175	69049	48299
0	92181	69049	48289
0	92187	69049	48279
0	92193	69049	48269
0	92199	69049	48259
0	92205	69049	48249
0	92211	69049	48239
0	92217	69049	48229
0	92223	69049	48219
0	92229	69049	48209
0	92235	69049	48199
0	92241	69049	48189
0	92247	69049	48179
0	92253	69049	48169
0	92259	69049	48159
0	92265	69049	48149
0	92271	69049	48139
0	92277	69049	48129
0	92283	69049	48119
0	92289	69049	48109
0	92295	69049	48099
0	92301	69049	48089
0	92307	69049	48079
0	92313	69049	48069
0	92319	69049	48059
0	92325	69049	48049
0	92331	69049	48039
0	92337	69049	48029
0	92343	69049	48019
0	92349	69049	48009
0	92355	69049	47999
0	92361	69049	47989
0	92367	69049	47979
0	92373	69049	47969
0	92379	69049	47959
0	92385	69049	47949
0	92391	69049	47939
0	92397	69049	47929
0	92403	69049	47919
0	92409	69049	47909
0	92415	69049	47899
0	92421	69049	47889
0	92427	69049	47879
0	92433	69049	47869
0	92439	69049	47859
0	92445	69049	47849
0	92451	69049	47839
0	92457	69049	47829
0	92463	69049	47819
0	92469	69049	47809
0	92475	69049	47799
0	92481	69049	47789
0	92487	69049	47779
0	92493	69049	47769
0	92499	69049	47759
0	92505	69049	47749
0	92511	69049	47739
0	92517	69049	47729
0	92523	69049	47719
0	92529	69049	47709
0	92535	69049	47699
0	92541	69049	47689
0	92547	69049	47679
0	92553	69049	47669
0	92559	69049	47659
0	92565	69049	47649
0	92571	69049	47639
0	92577	69049	47629
0	92583	69049	47619
0	92589	69049	47609
0	92595	69049	47599
0	92601	69049	47589
0	92607	69049	47579
0	92613	69049	47569
0	92619	69049	47559
0	92625	69049	47549
0	92631	69049	47539
0	92637	69049	47529
0	92643	69049	47519
0	92649	69049	47509
0	92655	69049	47499
0	92661	69049	47489
0	92667	69049	47479
0	92673	69049	47469
0	92679	69049	47459
0	92685	69049	47449
0	92691	69049	47439
0	92697	69049	47429
0	92703	69049	47419
0	92709	69049	47409
0	92715	69049	47399
0	92721	69049	47389
0	92727	69049	47379
0	92733	69049	47369
0	92739	69049	47359
0	92745	69049	47349
0	92751	69049	47339
0	92757	69049	47329
0	92763	69049	47319
0	92769	69049	47309
0	92775	69049	47299
0	92781	69049	47289
0	92787	69049	47279
0	92793	69049	47269
0	92799	69049	47259
0	92805	69049	47249
0	92811	69049	47239
0	92817	69049	47229
0	92823	69049	47219
0	92829	69049	47209
0	92835	69049	47199
0	92841	69049	47189
0	92847	69049	47179
0	92853	69049	47169
0	92859	69049	47159
0	92865	69049	47149
0	92871	69049	47139
0	92877	69049	47129
0	92883	69049	47119
0	92889	69049	47109
0	92895	69049	47099
0	92901	69049	47089
0	92907	69049	47079
0	92913	69049	47069
0	92919	69049	47059
0	92925	69049	47049
0	92931	69049	47039
0	92937	69049	47029
0	92943	69049	47019
0	92949	69049	47009
0	92955	69049	46999
0	92961	69049	46989
0	92967	69049	46979
0	92973	69049	46969
0	92979	69049	46959
0	92985	69049	46949
0	92991	69049	46939
0	92997	69049	46929
0	93003	69049	46919
0	93009	69049	46909
0	93015	69049	46899
0	93021	69049	46889
0	93027	69049	46879
0	93033	69049	46869
0	93039	69049	46859
0	93045	69049	46849
0	93051	69049	46839
0	93057	69049	46829
0	93063	69049	46819
0	93069	69049	46809
0	93075	69049	46799
0	93081	69049	46789
0	93087	69049	46779
0	93093	69049	46769
0	93099	69049	46759
0	93105	69049	46749
0	93111	69049	46739
0	93117	69049	46729
0	93123	69049	46719
0	93129	69049	46709
0	93135	69049	46699
0	93141	69049	46689
0	93147	69049	46679
0	93153	69049	46669
0	93159	69049	46659
0	93165	69049	46649
0	93171	69049	46639
0	93177	69049	46629
0	93183	69049	46619
0	93189	69049	46609
0	93195	69049	46599
0	93201	69049	46589
0	93207	69049	46579
0	93213	69049	46569
0	93219	69049	46559
0	93225	69049	46549
0	93231	69049	46539
0	93237	69049	46529
0	93243	69049	46519
0	93249	69049	46509
0	93255	69049	46499
0	93261	69049	46489
0	93267	69049	46479
0	93273	69049	46469
0	93279	69049	46459
0	93285	69049	46449
0	93291	69049	46439
0	93297	69049	46429
0	93303	69049	46419
0	93309	69049	46409
0	93315	69049	46399
0	93321	69049	46389
0	93327	69049	46379
0	93333	69049	46369
0	93339	69049	46359
0	93345	69049	46349
0	93351	69049	46339
0	93357	69049	46329
0	93363	69049	46319
0	93369	69049	46309
0	93375	69049	46299
0	93381	69049	46289
0	93387	69049	46279
0	93393	69049	46269
0	93399	69049	46259
0	93405	69049	46249
0	93411	69049	46239
0	93417	69049	46229
0	93423	69049	46219
0	93429	69049	46209
0	93435	69049	46199
0	93441	69049	46189
0	93447	69049	46179
0	93453	69049	46169
0	93459	69049	46159
0	93465	69049	46149
0	93471	69049	46139
0	93477	69049	46129
0	93483	69049	46119
0	93489	69049	46109
0	93495	69049	46099
0	93501	69049	46089
0	93507	69049	46079
0	93513	69049	46069
0	93519	69049	46059
0	93525	69049	46049
0	93531	69049	46039
0	93537	69049	46029
0	93543	69049	46019
0	93549	69049	46009
0	93555	69049	45999
0	93561	69049	45989
0	93567	69049	45979
0	93573	69049	45969
0	93579	69049	45959
0	93585	69049	45949
0	93591	69049	45939
0	93597	69049	45929
0	93603	69049	45919
0	93609	69049	45909
0	93615	69049	45899
0	93621	69049	45889
0	93627	69049	45879
0	93633	69049	45869
0	93639	69049	45859
0	93645	69049	45849
0	93651	69049	45839
0	93657	69049	45829
0	93663	69049	45819
0	93669	69049	45809
0	93675	69049	45799
0	93681	69049	45789
0	93687	69049	45779
0	93693	69049	45769
0	93699	69049	45759
0	93705	69049	45749
0	93711	69049	45739
0	93717	69049	45729
0	93723	69049	45719
0	93729	69049	45709
0	93735	69049	45699
0	93741	69049	45689
0	93747	69049	45679
0	93753	69049	45669
0	93759	69049	45659
0	93765	69049	45649
0	93771	69049	45639
0	93777	69049	45629
0	93783	69049	45619
0	93789	69049	45609
0	93795	69049	45599
0	93801	69049	45589
0	93807	69049	45579
0	93813	69049	45569
0	93819	69049	45559
0	93825	69049	45549
0	93831	69049	45539
0	93837	69049	45529
0	93843	69049	45519
0	93849	69049	45509
0	93855	69049	45499
0	93861	69049	45489
0	93867	69049	45479
0	93873	69049	45469
0	93879	69049	45459
0	93885	69049	45449
0	93891	69049	45439
0	93897	69049	45429
0	93903	69049	45419
0	93909	69049	45409
0	93915	69049	45399
0	93921	69049	45389
0	93927	69049	45379
0	93933	69049	45369
0	93939	69049	45359
0	93945	69049	45349
0	93951	69049	45339
0	93957	69049	45329
0	93963	69049	45319
0	93969	69049	45309
0	93975	69049	45299
0	93981	69049	45289
0	93987	69049	45279
0	93993	69049	45269
0	93999	69049	45259
0	94005	69049	45249
0	94011	69049	45239
0	94017	69049	45229
0	94023	69049	45219
0	94029	69049	45209
0	94035	69049	45199
0	94041	69049	45189
0	94047	69049	45179
0	94053	69049	45169
0	94059	69049	45159
0	94065	69049	45149
0	94071	69049	45139
0	94077	69049	45129
0	94083	69049	45119
0	94089	69049	45109
0	94095	69049	45099
0	94101	69049	45089
0	94107	69049	45079
0	94113	69049	45069
0	94119	69049	45059
0	94125	69049	45049
0	94131	69049	45039
0	94137	69049	45029
0	94143	69049	45019
0	94149	69049	45009
0	94155	69049	44999
0	94161	69049	44989
0	94167	69049	44979
0	94173	69049	44969
0	94179	69049	44959
0	94185	69049	44949
0	94191	69049	44939
0	94197	69049	44929
0	94203	69049	44919
0	94209	69049	44909
0	94215	69049	44899
0	94221	69049	44889
0	94227	69049	44879
0	94233	69049	44869
0	94239	69049	44859
0	94245	69049	44849
0	94251	69049	44839
0	94257	69049	44829
0	94263	69049	44819
0	94269	69049	44809
0	94275	69049	44799
0	94281	69049	44789
0	94287	69049	44779
0	94293	69049	44769
0	94299	69049	44759
0	94305	69049	44749
0	94311	69049	44739
0	94317	69049	44729
0	94323	69049	44719
0	94329	69049	44709
0	94335	69049	44699
0	94341	69049	44689
0	94347	69049	44679
0	94353	69049	44669
0	94359	69049	44659
0	94365	69049	44649
0	94371	69049	44639
0	94377	69049	44629
0	94383	69049	44619
0	94389	69049	44609
0	94395	69049	44599
0	94401	69049	44589
0	94407	69049	44579
0	94413	69049	44569
0	94419	69049	44559
0	94425	69049	44549
0	94431	69049	44539
0	94437	69049	44529
0	94443	69049	44519
0	94449	69049	44509
0	94455	69049	44499
0	94461	69049	44489
0	94467	69049	44479
0	94473	69049	44469
0	94479	69049	44459
0	94485	69049	44449
0	94491	69049	44439
0	94497	69049	44429
0	94503	69049	44419
0	94509	69049	44409
0	94515	69049	44399
0	94521	69049	44389
0	94527	69049	44379
0	94533	69049	44369
0	94539	69049	44359
0	94545	69049	44349
0	94551	69049	44339
0	94557	69049	44329
0	94563	69049	44319
0	94569	69049	44309
0	94575	69049	44299
0	94581	69049	44289
0	94587	69049	44279
0	94593	69049	44269
0	94599	69049	44259
0	94605	69049	44249
0	94611	69049	44239
0	94617	69049	44229
0	94623	69049	44219
0	94629	69049	44209
0	94635	69049	44199
0	94641	69049	44189
0	94647	69049	44179
0	94653	69049	44169
0	94659	69049	44159
0	94665	69049	44149
0	94671	69049	44139
0	94677	69049	44129
0	94683	69049	44119
0	94689	69049	44109
0	94695	69049	44099
0	94701	69049	44089
0	94707	69049	44079
0	94713	69049	44069
0	94719	69049	44059
0	94725	69049	44049
0	94731	69049	44039
0	94737	69049	44029
0	94743	69049	44019
0	94749	69049	44009
0	94755	69049	43999
0	94761	69049	43989
0	94767	69049	43979
0	94773	69049	43969
0	94779	69049	43959
0	94785	69049	43949
0	94791	69049	43939
0	94797	69049	43929
0	94803	69049	43919
0	94809	69049	43909
0	94815	69049	43899
0	94821	69049	43889
0	94827	69049	43879
0	94833	69049	43869
0	94839	69049	43859
0	94845	69049	43849
0	94851	69049	43839
0	94857	69049	43829
0	94863	69049	43819
0	94869	69049	43809
0	94875	69049	43799
0	94881	69049	43789
0	94887	69049	43779
0	94893	69049	43769
0	94899	69049	43759
0	94905	69049	43749
0	94911	69049	43739
0	94917	69049	43729
0	94923	69049	43719
0	94929	69049	43709
0	94935	69049	43699
0	94941	69049	43689
0	94947	69049	43679
0	94953	69049	43669
0	94959	69049	43659
0	94965	69049	43649
0	94971	69049	43639
0	94977	69049	43629
0	94983	69049	43619
0	94989	69049	43609
0	94995	69049	43599
0	95001	69049	43589
0	95007	69049	43579
0	95013	69049	43569
0	95019	69049	43559
0	95025	69049	43549
0	95031	69049	43539
0	95037	69049	43529
0	95043	69049	43519
0	95049	69049	43509
0	95055	69049	43499
0	95061	69049	43489
0	95067	69049	43479
0	95073	69049	43469
0	95079	69049	43459
0	95085	69049	43449
0	95091	69049	43439
0	95097	69049	43429
0	95103	69049	43419
0	95109	69049	43409
0	95115	69049	43399
0	95121	69049	43389
0	95127	69049	43379
0	95133	69049	43369
0	95139	69049	43359
0	95145	69049	43349
0	95151	69049	43339
0	95157	69049	43329
0	95163	69049	43319
0	95169	69049	43309
0	95175	69049	43299
0	95181	69049	43289
0	95187	69049	43279
0	95193	69049	43269
0	95199	69049	43259
0	95205	69049	43249
0	95211	69049	43239
0	95217	69049	43229
0	95223	69049	43219
0	95229	69049	43209
0	95235	69049	43199
0	95241	69049	43189
0	95247	69049	43179
0	95253	69049	43169
0	95259	69049	43159
0	95265	69049	43149
0	95271	69049	43139
0	95277	69049	43129
0	95283	69049	43119
0	95289	69049	43109
0	95295	69049	43099
0	95301	69049	43089
0	95307	69049	43079
0	95313	69049	43069
0	95319	69049	43059
0	95325	69049	43049
0	95331	69049	43039
0	95337	69049	43029
0	95343	69049	43019
0	95349	69049	43009
0	95355	69049	42999
0	95361	69049	42989
0	95367	69049	42979
0	95373	69049	42969
0	95379	69049	42959
0	95385	69049	42949
0	95391	69049	42939
0	95397	69049	42929
0	95403	69049	42919
0	95409	69049	42909
0	95415	69049	42899
0	95421	69049	42889
0	95427	69049	42879
0	95433	69049	42869
0	95439	69049	42859
0	95445	69049	42849
0	95451	69049	42839
0	95457	69049	42829
0	95463	69049	42819
0	95469	69049	42809
0	95475	69049	42799
0	95481	69049	42789
0	95487	69049	42779
0	95493	69049	42769
0	95499	69049	42759
0	95505	69049	42749
0	95511	69049	42739
0	95517	69049	42729
0	95523	69049	42719
0	95529	69049	42709
0	95535	69049	42699
0	95541	69049	42689
0	95547	69049	42679
0	95553	69049	42669
0	95559	69049	42659
0	95565	69049	42649
0	95571	69049	42639
0	95577	69049	42629
0	95583	69049	42619
0	95589	69049	42609
0	95595	69049	42599
0	95601	69049	42589
0	95607	69049	42579
0	95613	69049	42569
0	95619	69049	42559
0	95625	69049	42549
0	95631	69049	42539
0	95637	69049	42529
0	95643	69049	42519
0	95649	69049	42509
0	95655	69049	42499
0	95661	69049	42489
0	95667	69049	42479
0	95673	69049	42469
0	95679	69049	42459
0	95685	69049	42449
0	95691	69049	42439
0	95697	69049	42429
0	95703	69049	42419
0	95709	69049	42409
0	95715	69049	42399
0	95721	69049	42389
0	95727	69049	42379
0	95733	69049	42369
0	95739	69049	42359
0	95745	69049	42349
0	95751	69049	42339
0	95757	69049	42329
0	95763	69049	42319
0	95769	69049	42309
0	95775	69049	42299
0	95781	69049	42289
0	95787	69049	42279
0	95793	69049	42269
0	95799	69049	42259
0	95805	69049	42249
0	95811	69049	42239
0	95817	69049	42229
0	95823	69049	42219
0	95829	69049	42209
0	95835	69049	42199
0	95841	69049	42189
0	95847	69049	42179
0	95853	69049	42169
0	95859	69049	42159
0	95865	69049	42149
0	95871	69049	42139
0	95877	69049	42129
0	95883	69049	42119
0	95889	69049	42109
0	95895	69049	42099
0	95901	69049	42089
0	95907	69049	42079
0	95913	69049	42069
0	95919	69049	42059
0	95925	69049	42049
0	95931	69049	42039
0	95937	69049	42029
0	95943	69049	42019
0	95949	69049	42009
0	95955	69049	41999
0	95961	69049	41989
0	95967	69049	41979
0	95973	69049	41969
0	95979	69049	41959
0	95985	69049	41949
0	95991	69049	41939
0	95997	69049	41929
0	96003	69049	41919
0	96009	69049	41909
0	96015	69049	41899
0	96021	69049	41889
0	96027	69049	41879
0	96033	69049	41869
0	96039	69049	41859
0	96045	69049	41849
0	96051	69049	41839
0	96057	69049	41829
0	96063	69049	41819
0	96069	69049	41809
0	96075	69049	41799
0	96081	69049	41789
0	96087	69049	41779
0	96093	69049	41769
0	96099	69049	41759
0	96105	69049	41749
0	96111	69049	41739
0	96117	69049	41729
0	96123	69049	41719
0	96129	69049	41709
0	96135	69049	41699
0	96141	69049	41689
0	96147	69049	41679
0	96153	69049	41669
0	96159	69049	41659
0	96165	69049	41649
0	96171	69049	41639
0	96177	69049	41629
0	96183	69049	41619
0	96189	69049	41609
0	96195	69049	41599
0	96201	69049	41589
0	96207	69049	41579
0	96213	69049	41569
0	96219	69049	41559
0	96225	69049	41549
0	96231	69049	41539
0	96237	69049	41529
0	96243	69049	41519
0	96249	69049	41509
0	96255	69049	41499
0	96261	69049	41489
0	96267	69049	41479
0	96273	69049	41469
0	96279	69049	41459
0	96285	69049	41449
0	96291	69049	41439
0	96297	69049	41429
0	96303	69049	41419
0	96309	69049	41409
0	96315	69049	41399
0	96321	69049	41389
0	96327	69049	41379
0	96333	69049	41369
0	96339	69049	41359
0	96345	69049	41349
0	96351	69049	41339
0	96357	69049	41329
0	96363	69049	41319
0	96369	69049	41309
0	96375	69049	41299
0	96381	69049	41289
0	96387	69049	41279
0	96393	69049	41269
0	96399	69049	41259
0	96405	69049	41249
0	96411	69049	41239
0	96417	69049	41229
0	96423	69049	41219
0	96429	69049	41209
0	96435	69049	41199
0	96441	69049	41189
0	96447	69049	41179
0	96453	69049	41169
0	96459	69049	41159
0	96465	69049	41149
0	96471	69049	41139
0	96477	69049	41129
0	96483	69049	41119
0	96489	69049	41109
0	96495	69049	41099
0	96501	69049	41089
0	96507	69049	41079
0	96513	69049	41069
0	96519	69049	41059
0	96525	69049	41049
0	96531	69049	41039
0	96537	69049	41029
0	96543	69049	41019
0	96549	69049	41009
0	96555	69049	40999
0	96561	69049	40989
0	96567	69049	40979
0	96573	69049	40969
0	96579	69049	40959
0	96585	69049	40949
0	96591	69049	40939
0	96597	69049	40929
0	96603	69049	40919
0	96609	69049	40909
0	96615	69049	40899
0	96621	69049	40889
0	96627	69049	40879
0	96633	69049	40869
0	96639	69049	40859
0	96645	69049	40849
0	96651	69049	40839
0	96657	69049	40829
0	96663	69049	40819
0	96669	69049	40809
0	96675	69049	40799
0	96681	69049	40789
0	96687	69049	40779
0	96693	69049	40769
0	96699	69049	40759
0	96705	69049	40749
0	96711	69049	40739
0	96717	69049	40729
0	96723	69049	40719
0	96729	69049	40709
0	96735	69049	40699
0	96741	69049	40689
0	96747	69049	40679
0	96753	69049	40669
0	96759	69049	40659
0	96765	69049	40649
0	96771	69049	40639
0	96777	69049	40629
0	96783	69049	40619
0	96789	69049	40609
0	96795	69049	40599
0	96801	69049	40589
0	96807	69049	40579
0	96813	69049	40569
0	96819	69049	40559
0	96825	69049	40549
0	96831	69049	40539
0	96837	69049	40529
0	96843	69049	40519
0	96849	69049	40509
0	96855	69049	40499
0	96861	69049	40489
0	96867	69049	40479
0	96873	69049	40469
0	96879	69049	40459
0	96885	69049	40449
0	96891	69049	40439
0	96897	69049	40429
0	96903	69049	40419
0	96909	69049	40409
0	96915	69049	40399
0	96921	69049	40389
0	96927	69049	40379
0	96933	69049	40369
0	96939	69049	40359
0	96945	69049	40349
0	96951	69049	40339
0	96957	69049	40329
0	96963	69049	40319
0	96969	69049	40309
0	96975	69049	40299
0	96981	69049	40289
0	96987	69049	40279
0	96993	69049	40269
0	96999	69049	40259
0	97005	69049	40249
0	97011	69049	40239
0	97017	69049	40229
0	97023	69049	40219
0	97029	69049	40209
0	97035	69049	40199
0	97041	69049	40189
0	97047	69049	40179
0	97053	69049	40169
0	97059	69049	40159
0	97065	69049	40149
0	97071	69049	40139
0	97077	69049	40129
0	97083	69049	40119
0	97089	69049	40109
0	97095	69049	40099
0	97101	69049	40089
0	97107	69049	40079
0	97113	69049	40069
0	97119	69049	40059
0	97125	69049	40049
0	97131	69049	40039
0	97137	69049	40029
0	97143	69049	40019
0	97149	69049	40009
0	97155	69049	39999
0	97161	69049	39989
0	97167	69049	39979
0	97173	69049	39969
0	97179	69049	39959
0	97185	69049	39949
0	97191	69049	39939
0	97197	69049	39929
0	97203	69049	39919
0	97209	69049	39909
0	97215	69049	39899
0	97221	69049	39889
0	97227	69049	39879
0	97233	69049	39869
0	97239	69049	39859
0	97245	69049	39849
0	97251	69049	39839
0	97257	69049	39829
0	97263	69049	39819
0	97269	69049	39809
0	97275	69049	39799
0	97281	69049	39789
0	97287	69049	39779
0	97293	69049	39769
0	97299	69049	39759
0	97305	69049	39749
0	97311	69049	39739
0	97317	69049	39729
0	97323	69049	39719
0	97329	69049	39709
0	97335	69049	39699
0	97341	69049	39689
0	97347	69049	39679
0	97353	69049	39669
0	97359	69049	39659
0	97365	69049	39649
0	97371	69049	39639
0	97377	69049	39629
0	97383	69049	39619
0	97389	69049	39609
0	97395	69049	39599
0	97401	69049	39589
0	97407	69049	39579
0	97413	69049	39569
0	97419	69049	39559
0	97425	69049	39549
0	97431	69049	39539
0	97437	69049	39529
0	97443	69049	39519
0	97449	69049	39509
0	97455	69049	39499
0	97461	69049	39489
0	97467	69049	39479
0	97473	69049	39469
0	97479	69049	39459
0	97485	69049	39449
0	97491	69049	39439
0	97497	69049	39429
0	97503	69049	39419
0	97509	69049	39409
0	97515	69049	39399
0	97521	69049	39389
0	97527	69049	39379
0	97533	69049	39369
0	97539	69049	39359
0	97545	69049	39349
0	97551	69049	39339
0	97557	69049	39329
0	97563	69049	39319
0	97569	69049	39309
0	97575	69049	39299
0	97581	69049	39289
0	97587	69049	39279
0	97593	69049	39269
0	97599	69049	39259
0	97605	69049	39249
0	97611	69049	39239
0	97617	69049	39229
0	97623	69049	39219
0	97629	69049	39209
0	97635	69049	39199
0	97641	69049	39189
0	97647	69049	39179
0	97653	69049	39169
0	97659	69049	39159
0	97665	69049	39149
0	97671	69049	39139
0	97677	69049	39129
0	97683	69049	39119
0	97689	69049	39109
0	97695	69049	39099
0	97701	69049	39089
0	97707	69049	39079
0	97713	69049	39069
0	97719	69049	39059
0	97725	69049	39049
0	97731	69049	39039
0	97737	69049	39029
0	97743	69049	39019
0	97749	69049	39009
0	97755	69049	38999
0	97761	69049	38989
0	97767	69049	38979
0	97773	69049	38969
0	97779	69049	38959
0	97785	69049	38949
0	97791	69049	38939
0	97797	69049	38929
0	97803	69049	38919
0	97809	69049	38909
0	97815	69049	38899
0	97821	69049	38889
0	97827	69049	38879
0	97833	69049	38869
0	97839	69049	38859
0	97845	69049	38849
0	97851	69049	38839
0	97857	69049	38829
0	97863	69049	38819
0	97869	69049	38809
0	97875	69049	38799
0	97881	69049	38789
0	97887	69049	38779
0	97893	69049	38769
0	97899	69049	38759
0	97905	69049	38749
0	97911	69049	38739
0	97917	69049	38729
0	97923	69049	38719
0	97929	69049	38709
0	97935	69049	38699
0	97941	69049	38689
0	97947	69049	38679
0	97953	69049	38669
0	97959	69049	38659
0	97965	69049	38649
0	97971	69049	38639
0	97977	69049	38629
0	97983	69049	38619
0	97989	69049	38609
0	97995	69049	38599
0	98001	69049	38589
0	98007	69049	38579
0	98013	69049	38569
0	98019	69049	38559
0	98025	69049	38549
0	98031	69049	38539
0	98037	69049	38529
0	98043	69049	38519
0	98049	69049	38509
0	98055	69049	38499
0	98061	69049	38489
0	98067	69049	38479
0	98073	69049	38469
0	98079	69049	38459
0	98085	69049	38449
0	98091	69049	38439
0	98097	69049	38429
0	98103	69049	38419
0	98109	69049	38409
0	98115	69049	38399
0	98121	69049	38389
0	98127	69049	38379
0	98133	69049	38369
0	98139	69049	38359
0	98145	69049	38349
0	98151	69049	38339
0	98157	69049	38329
0	98163	69049	38319
0	98169	69049	38309
0	98175	69049	38299
0	98181	69049	38289
0	98187	69049	38279
0	98193	69049	38269
0	98199	69049	38259
0	98205	69049	38249
0	98211	69049	38239
0	98217	69049	38229
0	98223	69049	38219
0	98229	69049	38209
0	98235	69049	38199
0	98241	69049	38189
0	98247	69049	38179
0	98253	69049	38169
0	98259	69049	38159
0	98265	69049	38149
0	98271	69049	38139
0	98277	69049	38129
0	98283	69049	38119
0	98289	69049	38109
0	98295	69049	38099
0	98301	69049	38089
0	98307	69049	38079
0	98313	69049	38069
0	98319	69049	38059
0	98325	69049	38049
0	98331	69049	38039
0	98337	69049	38029
0	98343	69049	38019
0	98349	69049	38009
0	98355	69049	37999
0	98361	69049	37989
0	98367	69049	37979
0	98373	69049	37969
0	98379	69049	37959
0	98385	69049	37949
0	98391	69049	37939
0	98397	69049	37929
0	98403	69049	37919
0	98409	69049	37909
0	98415	69049	37899
0	98421	69049	37889
0	98427	69049	37879
0	98433	69049	37869
0	98439	69049	37859
0	98445	69049	37849
0	98451	69049	37839
0	98457	69049	37829
0	98463	69049	37819
0	98469	69049	37809
0	98475	69049	37799
0	98481	69049	37789
0	98487	69049	37779
0	98493	69049	37769
0	98499	69049	37759
0	98505	69049	37749
0	98511	69049	37739
0	98517	69049	37729
0	98523	69049	37719
0	98529	69049	37709
0	98535	69049	37699
0	98541	69049	37689
0	98547	69049	37679
0	98553	69049	37669
0	98559	69049	37659
0	98565	69049	37649
0	98571	69049	37639
0	98577	69049	37629
0	98583	69049	37619
0	98589	69049	37609
0	98595	69049	37599
0	98601	69049	37589
0	98607	69049	37579
0	98613	69049	37569
0	98619	69049	37559
0	98625	69049	37549
0	98631	69049	37539
0	98637	69049	37529
0	98643	69049	37519
0	98649	69049	37509
0	98655	69049	37499
0	98661	69049	37489
0	98667	69049	37479
0	98673	69049	37469
0	98679	69049	37459
0	98685	69049	37449
0	98691	69049	37439
0	98697	69049	37429
0	98703	69049	37419
0	98709	69049	37409
0	98715	69049	37399
0	98721	69049	37389
0	98727	69049	37379
0	98733	69049	37369
0	98739	69049	37359
0	98745	69049	37349
0	98751	69049	37339
0	98757	69049	37329
0	98763	69049	37319
0	98769	69049	37309
0	98775	69049	37299
0	98781	69049	37289
0	98787	69049	37279
0	98793	69049	37269
0	98799	69049	37259
0	98805	69049	37249
0	98811	69049	37239
0	98817	69049	37229
0	98823	69049	37219
0	98829	69049	37209
0	98835	69049	37199
0	98841	69049	37189
0	98847	69049	37179
0	98853	69049	37169
0	98859	69049	37159
0	98865	69049	37149
0	98871	69049	37139
0	98877	69049	37129
0	98883	69049	37119
0	98889	69049	37109
0	98895	69049	37099
0	98901	69049	37089
0	98907	69049	37079
0	98913	69049	37069
0	98919	69049	37059
0	98925	69049	37049
0	98931	69049	37039
0	98937	69049	37029
0	98943	69049	37019
0	98949	69049	37009
0	98955	69049	36999
0	98961	69049	36989
0	98967	69049	36979
0	98973	69049	36969
0	98979	69049	36959
0	98985	69049	36949
0	98991	69049	36939
0	98997	69049	36929
0	99003	69049	36919
0	99009	69049	36909
0	99015	69049	36899
0	99021	69049	36889
0	99027	69049	36879
0	99033	69049	36869
0	99039	69049	36859
0	99045	69049	36849
0	99051	69049	36839
0	99057	69049	36829
0	99063	69049	36819
0	99069	69049	36809
0	99075	69049	36799
0	99081	69049	36789
0	99087	69049	36779
0	99093	69049	36769
0	99099	69049	36759
0	99105	69049	36749
0	99111	69049	36739
0	99117	69049	36729
0	99123	69049	36719
0	99129	69049	36709
0	99135	69049	36699
0	99141	69049	36689
0	99147	69049	36679
0	99153	69049	36669
0	99159	69049	36659
0	99165	69049	36649
0	99171	69049	36639
0	99177	69049	36629
0	99183	69049	36619
0	99189	69049	36609
0	99195	69049	36599
0	99201	69049	36589
0	99207	69049	36579
0	99213	69049	36569
0	99219	69049	36559
0	99225	69049	36549
0	99231	69049	36539
0	99237	69049	36529
0	99243	69049	36519
0	99249	69049	36509
0	99255	69049	36499
0	99261	69049	36489
0	99267	69049	36479
0	99273	69049	36469
0	99279	69049	36459
0	99285	69049	36449
0	99291	69049	36439
0	99297	69049	36429
0	99303	69049	36419
0	99309	69049	36409
0	99315	69049	36399
0	99321	69049	36389
0	99327	69049	36379
0	99333	69049	36369
0	99339	69049	36359
0	99345	69049	36349
0	99351	69049	36339
0	99357	69049	36329
0	99363	69049	36319
0	99369	69049	36309
0	99375	69049	36299
0	99381	69049	36289
0	99387	69049	36279
0	99393	69049	36269
0	99399	69049	36259
0	99405	69049	36249
0	99411	69049	36239
0	99417	69049	36229
0	99423	69049	36219
0	99429	69049	36209
0	99435	69049	36199
0	99441	69049	36189
0	99447	69049	36179
0	99453	69049	36169
0	99459	69049	36159
0	99465	69049	36149
0	99471	69049	36139
0	99477	69049	36129
0	99483	69049	36119
0	99489	69049	36109
0	99495	69049	36099
0	99501	69049	36089
0	99507	69049	36079
0	99513	69049	36069
0	99519	69049	36059
0	99525	69049	36049
0	99531	69049	36039
0	99537	69049	36029
0	99543	69049	36019
0	99549	69049	36009
0	99555	69049	35999
0	99561	69049	35989
0	99567	69049	35979
0	99573	69049	35969
0	99579	69049	35959
0	99585	69049	35949
0	99591	69049	35939
0	99597	69049	35929
0	99603	69049	35919
0	99609	69049	35909
0	99615	69049	35899
0	99621	69049	35889
0	99627	69049	35879
0	99633	69049	35869
0	99639	69049	35859
0	99645	69049	35849
0	99651	69049	35839
0	99657	69049	35829
0	99663	69049	35819
0	99669	69049	35809
0	99675	69049	35799
0	99681	69049	35789
0	99687	69049	35779
0	99693	69049	35769
0	99699	69049	35759
0	99705	69049	35749
0	99711	69049	35739
0	99717	69049	35729
0	99723	69049	35719
0	99729	69049	35709
0	99735	69049	35699
0	99741	69049	35689
0	99747	69049	35679
0	99753	69049	35669
0	99759	69049	35659
0	99765	69049	35649
0	99771	69049	35639
0	99777	69049	35629
0	99783	69049	35619
0	99789	69049	35609
0	99795	69049	35599
0	99801	69049	35589
0	99807	69049	35579
0	99813	69049	35569
0	99819	69049	35559
0	99825	69049	35549
0	99831	69049	35539
0	99837	69049	35529
0	99843	69049	35519
0	99849	69049	35509
0	99855	69049	35499
0	99861	69049	35489
0	99867	69049	35479
0	99873	69049	35469
0	99879	69049	35459
0	99885	69049	35449
0	99891	69049	35439
0	99897	69049	35429
0	99903	69049	35419
0	99909	69049	35409
0	99915	69049	35399
0	99921	69049	35389
0	99927	69049	35379
0	99933	69049	35369
0	99939	69049	35359
0	99945	69049	35349
0	99951	69049	35339
0	99957	69049	35329
0	99963	69049	35319
0	99969	69049	35309
0	99975	69049	35299
0	99981	69049	35289
0	99987	69049	35279
0	99993	69049	35269
0	99999	69049	35259
0	100005	69049	35249
0	100011	69049	35239
0	100017	69049	35229
0	100023	69049	35219
0	100029	69049	35209
0	100035	69049	35199
0	100041	69049	35189
0	100047	69049	35179
0	100053	69049	35169
0	100059	69049	35159
0	100065	69049	35149
0	100071	69049	35139
0	100077	69049	35129
0	100083	69049	35119
0	100089	69049	35109
0	100095	69049	35099
0	100101	69049	35089
0	100107	69049	35079
0	100113	69049	35069
0	100119	69049	35059
0	100125	69049	35049
0	100131	69049	35039
0	100137	69049	35029
0	100143	69049	35019
0	100149	69049	35009
0	100155	69049	34999
0	100161	69049	34989
0	100167	69049	34979
0	100173	69049	34969
0	100179	69049	34959
0	100185	69049	34949
0	100191	69049	34939
0	100197	69049	34929
0	100203	69049	34919
0	100209	69049	34909
0	100215	69049	34899
0	100221	69049	34889
0	100227	69049	34879
0	100233	69049	34869
0	100239	69049	34859
0	100245	69049	34849
0	100251	69049	34839
0	100257	69049	34829
0	100263	69049	34819
0	100269	69049	34809
0	100275	69049	34799
0	100281	69049	34789
0	100287	69049	34779
0	100293	69049	34769
0	100299	69049	34759
0	100305	69049	34749
0	100311	69049	34739
0	100317	69049	34729
0	100323	69049	34719
0	100329	69049	34709
0	100335	69049	34699
0	100341	69049	34689
0	100347	69049	34679
0	100353	69049	34669
0	100359	69049	34659
0	100365	69049	34649
0	100371	69049	34639
0	100377	69049	34629
0	100383	69049	34619
0	100389	69049	34609
0	100395	69049	34599
0	100401	69049	34589
0	100407	69049	34579
0	100413	69049	34569
0	100419	69049	34559
0	100425	69049	34549
0	100431	69049	34539
0	100437	69049	34529
0	100443	69049	34519
0	100449	69049	34509
0	100455	69049	34499
0	100461	69049	34489
0	100467	69049	34479
0	100473	69049	34469
0	100479	69049	34459
0	100485	69049	34449
0	100491	69049	34439
0	100497	69049	34429
0	100503	69049	34419
0	100509	69049	34409
0	100515	69049	34399
0	100521	69049	34389
0	100527	69049	34379
0	100533	69049	34369
0	100539	69049	34359
0	100545	69049	34349
0	100551	69049	34339
0	100557	69049	34329
0	100563	69049	34319
0	100569	69049	34309
0	100575	69049	34299
0	100581	69049	34289
0	100587	69049	34279
0	100593	69049	34269
0	100599	69049	34259
0	100605	69049	34249
0	100611	69049	34239
0	100617	69049	34229
0	100623	69049	34219
0	100629	69049	34209
0	100635	69049	34199
0	100641	69049	34189
0	100647	69049	34179
0	100653	69049	34169
0	100659	69049	34159
0	100665	69049	34149
0	100671	69049	34139
0	100677	69049	34129
0	100683	69049	34119
0	100689	69049	34109
0	100695	69049	34099
0	100701	69049	34089
0	100707	69049	34079
0	100713	69049	34069
0	100719	69049	34059
0	100725	69049	34049
0	100731	69049	34039
0	100737	69049	34029
0	100743	69049	34019
0	100749	69049	34009
0	100755	69049	33999
0	100761	69049	33989
0	100767	69049	33979
0	100773	69049	33969
0	100779	69049	33959
0	100785	69049	33949
0	100791	69049	33939
0	100797	69049	33929
0	100803	69049	33919
0	100809	69049	33909
0	100815	69049	33899
0	100821	69049	33889
0	100827	69049	33879
0	100833	69049	33869
0	100839	69049	33859
0	100845	69049	33849
0	100851	69049	33839
0	100857	69049	33829
0	100863	69049	33819
0	100869	69049	33809
0	100875	69049	33799
0	100881	69049	33789
0	100887	69049	33779
0	100893	69049	33769
0	100899	69049	33759
0	100905	69049	33749
0	100911	69049	33739
0	100917	69049	33729
0	100923	69049	33719
0	100929	69049	33709
0	100935	69049	33699
0	100941	69049	33689
0	100947	69049	33679
0	100953	69049	33669
0	100959	69049	33659
0	100965	69049	33649
0	100971	69049	33639
0	100977	69049	33629
0	100983	69049	33619
0	100989	69049	33609
0	100995	69049	33599
0	101001	69049	33589
0	101007	69049	33579
0	101013	69049	33569
0	101019	69049	33559
0	101025	69049	33549
0	101031	69049	33539
0	101037	69049	33529
0	101043	69049	33519
0	101049	69049	33509
0	101055	69049	33499
0	101061	69049	33489
0	101067	69049	33479
0	101073	69049	33469
0	101079	69049	33459
0	101085	69049	33449
0	101091	69049	33439
0	101097	69049	33429
0	101103	69049	33419
0	101109	69049	33409
0	101115	69049	33399
0	101121	69049	33389
0	101127	69049	33379
0	101133	69049	33369
0	101139	69049	33359
0	101145	69049	33349
0	101151	69049	33339
0	101157	69049	33329
0	101163	69049	33319
0	101169	69049	33309
0	101175	69049	33299
0	101181	69049	33289
0	101187	69049	33279
0	101193	69049	33269
0	101199	69049	33259
0	101205	69049	33249
0	101211	69049	33239
0	101217	69049	33229
0	101223	69049	33219
0	101229	69049	33209
0	101235	69049	33199
0	101241	69049	33189
0	101247	69049	33179
0	101253	69049	33169
0	101259	69049	33159
0	101265	69049	33149
0	101271	69049	33139
0	101277	69049	33129
0	101283	69049	33119
0	101289	69049	33109
0	101295	69049	33099
0	101301	69049	33089
0	101307	69049	33079
0	101313	69049	33069
0	101319	69049	33059
0	101325	69049	33049
0	101331	69049	33039
0	101337	69049	33029
0	101343	69049	33019
0	101349	69049	33009
0	101355	69049	32999
0	101361	69049	32989
0	101367	69049	32979
0	101373	69049	32969
0	101379	69049	32959
0	101385	69049	32949
0	101391	69049	32939
0	101397	69049	32929
0	101403	69049	32919
0	101409	69049	32909
0	101415	69049	32899
0	101421	69049	32889
0	101427	69049	32879
0	101433	69049	32869
0	101439	69049	32859
0	101445	69049	32849
0	101451	69049	32839
0	101457	69049	32829
0	101463	69049	32819
0	101469	69049	32809
0	101475	69049	32799
0	101481	69049	32789
0	101487	69049	32779
0	101493	69049	32769
0	101499	69049	32759
0	101505	69049	32749
0	101511	69049	32739
0	101517	69049	32729
0	101523	69049	32719
0	101529	69049	32709
0	101535	69049	32699
0	101541	69049	32689
0	101547	69049	32679
0	101553	69049	32669
0	101559	69049	32659
0	101565	69049	32649
0	101571	69049	32639
0	101577	69049	32629
0	101583	69049	32619
0	101589	69049	32609
0	101595	69049	32599
0	101601	69049	32589
0	101607	69049	32579
0	101613	69049	32569
0	101619	69049	32559
0	101625	69049	32549
0	101631	69049	32539
0	101637	69049	32529
0	101643	69049	32519
0	101649	69049	32509
0	101655	69049	32499
0	101661	69049	32489
0	101667	69049	32479
0	101673	69049	32469
0	101679	69049	32459
0	101685	69049	32449
0	101691	69049	32439
0	101697	69049	32429
0	101703	69049	32419
0	101709	69049	32409
0	101715	69049	32399
0	101721	69049	32389
0	101727	69049	32379
0	101733	69049	32369
0	101739	69049	32359
0	101745	69049	32349
0	101751	69049	32339
0	101757	69049	32329
0	101763	69049	32319
0	101769	69049	32309
0	101775	69049	32299
0	101781	69049	32289
0	101787	69049	32279
0	101793	69049	32269
0	101799	69049	32259
0	101805	69049	32249
0	101811	69049	32239
0	101817	69049	32229
0	101823	69049	32219
0	101829	69049	32209
0	101835	69049	32199
0	101841	69049	32189
0	101847	69049	32179
0	101853	69049	32169
0	101859	69049	32159
0	101865	69049	32149
0	101871	69049	32139
0	101877	69049	32129
0	101883	69049	32119
0	101889	69049	32109
0	101895	69049	32099
0	101901	69049	32089
0	101907	69049	32079
0	101913	69049	32069
0	101919	69049	32059
0	101925	69049	32049
0	101931	69049	32039
0	101937	69049	32029
0	101943	69049	32019
0	101949	69049	32009
0	101955	69049	31999
0	101961	69049	31989
0	101967	69049	31979
0	101973	69049	31969
0	101979	69049	31959
0	101985	69049	31949
0	101991	69049	31939
0	101997	69049	31929
0	102003	69049	31919
0	102009	69049	31909
0	102015	69049	31899
0	102021	69049	31889
0	102027	69049	31879
0	102033	69049	31869
0	102039	69049	31859
0	102045	69049	31849
0	102051	69049	31839
0	102057	69049	31829
0	102063	69049	31819
0	102069	69049	31809
0	102075	69049	31799
0	102081	69049	31789
0	102087	69049	31779
0	102093	69049	31769
0	102099	69049	31759
0	102105	69049	31749
0	102111	69049	31739
0	102117	69049	31729
0	102123	69049	31719
0	102129	69049	31709
0	102135	69049	31699
0	102141	69049	31689
0	102147	69049	31679
0	102153	69049	31669
0	102159	69049	31659
0	102165	69049	31649
0	102171	69049	31639
0	102177	69049	31629
0	102183	69049	31619
0	102189	69049	31609
0	102195	69049	31599
0	102201	69049	31589
0	102207	69049	31579
0	102213	69049	31569
0	102219	69049	31559
0	102225	69049	31549
0	102231	69049	31539
0	102237	69049	31529
0	102243	69049	31519
0	102249	69049	31509
0	102255	69049	31499
0	102261	69049	31489
0	102267	69049	31479
0	102273	69049	31469
0	102279	69049	31459
0	102285	69049	31449
0	102291	69049	31439
0	102297	69049	31429
0	102303	69049	31419
0	102309	69049	31409
0	102315	69049	31399
0	102321	69049	31389
0	102327	69049	31379
0	102333	69049	31369
0	102339	69049	31359
0	102345	69049	31349
0	102351	69049	31339
0	102357	69049	31329
0	102363	69049	31319
0	102369	69049	31309
0	102375	69049	31299
0	102381	69049	31289
0	102387	69049	31279
0	102393	69049	31269
0	102399	69049	31259
0	102405	69049	31249
0	102411	69049	31239
0	102417	69049	31229
0	102423	69049	31219
0	102429	69049	31209
0	102435	69049	31199
0	102441	69049	31189
0	102447	69049	31179
0	102453	69049	31169
0	102459	69049	31159
0	102465	69049	31149
0	102471	69049	31139
0	102477	69049	31129
0	102483	69049	31119
0	102489	69049	31109
0	102495	69049	31099
0	102501	69049	31089
0	102507	69049	31079
0	102513	69049	31069
0	102519	69049	31059
0	102525	69049	31049
0	102531	69049	31039
0	102537	69049	31029
0	102543	69049	31019
0	102549	69049	31009
0	102555	69049	30999
0	102561	69049	30989
0	102567	69049	30979
0	102573	69049	30969
0	102579	69049	30959
0	102585	69049	30949
0	102591	69049	30939
0	102597	69049	30929
0	102603	69049	30919
0	102609	69049	30909
0	102615	69049	30899
0	102621	69049	30889
0	102627	69049	30879
0	102633	69049	30869
0	102639	69049	30859
0	102645	69049	30849
0	102651	69049	30839
0	102657	69049	30829
0	102663	69049	30819
0	102669	69049	30809
0	102675	69049	30799
0	102681	69049	30789
0	102687	69049	30779
0	102693	69049	30769
0	102699	69049	30759
0	102705	69049	30749
0	102711	69049	30739
0	102717	69049	30729
0	102723	69049	30719
0	102729	69049	30709
0	102735	69049	30699
0	102741	69049	30689
0	102747	69049	30679
0	102753	69049	30669
0	102759	69049	30659
0	102765	69049	30649
0	102771	69049	30639
0	102777	69049	30629
0	102783	69049	30619
0	102789	69049	30609
0	102795	69049	30599
0	102801	69049	30589
0	102807	69049	30579
0	102813	69049	30569
0	102819	69049	30559
0	102825	69049	30549
0	102831	69049	30539
0	102837	69049	30529
0	102843	69049	30519
0	102849	69049	30509
[...]
0	130510	72108	3278
0	130516	72108	3268
0	130522	72108	3258
0	130528	72108	3248
0	130534	72108	3238
0	130540	72108	3228
0	130546	72108	3218
0	130552	72108	3208
0	130558	72108	3198
0	130564	72108	3188
0	130570	72108	3178
0	130576	72108	3168
0	130582	72108	3158
0	130588	72108	3148
0	130594	72108	3138
0	130600	72108	3128
0	130606	72108	3118
0	130612	72108	3108
0	130618	72108	3098
0	130624	72108	3088
0	130630	72108	3078
0	130636	72108	3068
0	130642	72108	3058
0	130648	72108	3048
0	130654	72108	3038
0	130660	72108	3028
0	130666	72108	3018
0	130672	72108	3008
0	130678	72108	2998
0	130684	72108	2988
0	130690	72108	2978
0	130696	72108	2968
0	130702	72108	2958
0	130708	72108	2948
0	130714	72108	2938
0	130720	72108	2928
0	130726	72108	2918
0	130732	72108	2908
0	130738	72108	2898
0	130744	72108	2888
0	130750	72108	2878
0	130756	72108	2868
0	130762	72108	2858
0	130768	72108	2848
0	130774	72108	2838
0	130780	72108	2828
0	130786	72108	2818
0	130792	72108	2808
0	130798	72108	2798
0	130804	72108	2788
0	130810	72108	2778
0	130816	72108	2768
0	130822	72108	2758
0	130828	72108	2748
0	130834	72108	2738
0	130840	72108	2728
0	130846	72108	2718
0	130852	72108	2708
0	130858	72108	2698
0	130864	72108	2688
0	130870	72108	2678
0	130876	72108	2668
0	130882	72108	2658
0	130888	72108	2648
0	130894	72108	2638
0	130900	72108	2628
0	130906	72108	2618
0	130912	72108	2608
0	130918	72108	2598
0	130924	72108	2588
0	130930	72108	2578
0	130936	72108	2568
0	130942	72108	2558
0	130948	72108	2548
0	130954	72108	2538
0	130960	72108	2528
0	130966	72108	2518
0	130972	72108	2508
0	130978	72108	2498
0	130984	72108	2488
0	130990	72108	2478
0	130996	72108	2468
0	131002	72108	2458
0	131008	72108	2448
0	131014	72108	2438
0	131020	72108	2428
0	131026	72108	2418
0	131032	72108	2408
0	131038	72108	2398
0	131044	72108	2388
0	131050	72108	2378
0	131056	72108	2368
0	131062	72108	2358
0	131068	72108	2348
0	131074	72108	2338
0	131080	72108	2328
0	131086	72108	2318
0	131092	72108	2308
0	131098	72108	2298
0	131104	72108	2288
0	131110	72108	2278
0	131116	72108	2268
0	131122	72108	2258
0	131128	72108	2248
0	131134	72108	2238
0	131140	72108	2228
0	131146	72108	2218
0	131152	72108	2208
0	131158	72108	2198
0	131164	72108	2188
0	131170	72108	2178
0	131176	72108	2168
0	131182	72108	2158
0	131188	72108	2148
0	131194	72108	2138
0	131200	72108	2128
0	131206	72108	2118
0	131212	72108	2108
0	131218	72108	2098
0	131224	72108	2088
0	131230	72108	2078
0	131236	72108	2068
0	131242	72108	2058
0	131248	72108	2048
0	131254	72108	2038
0	131260	72108	2028
0	131266	72108	2018
0	131272	72108	2008
0	131278	72108	1998
0	131284	72108	1988
0	131290	72108	1978
0	131296	72108	1968
0	131302	72108	1958
0	131308	72108	1948
0	131314	72108	1938
0	131320	72108	1928
0	131326	72108	1918
0	131332	72108	1908
0	131338	72108	1898
0	131344	72108	1888
0	131350	72108	1878
0	131356	72108	1868
0	131362	72108	1858
0	131368	72108	1848
0	131374	72108	1838
0	131380	72108	1828
0	131386	72108	1818
0	131392	72108	1808
0	131398	72108	1798
0	131404	72108	1788
0	131410	72108	1778
0	131416	72108	1768
0	131422	72108	1758
0	131428	72108	1748
0	131434	72108	1738
0	131440	72108	1728
0	131446	72108	1718
0	131452	72108	1708
0	131458	72108	1698
0	131464	72108	1688
0	131470	72108	1678
0	131476	72108	1668
0	131482	72108	1658
0	131488	72108	1648
0	131494	72108	1638
0	131500	72108	1628
0	131506	72108	1618
0	131512	72108	1608
0	131518	72108	1598
0	131524	72108	1588
0	131530	72108	1578
0	131536	72108	1568
0	131542	72108	1558
0	131548	72108	1548
0	131554	72108	1538
0	131560	72108	1528
0	131566	72108	1518
0	131572	72108	1508
0	131578	72108	1498
0	131584	72108	1488
0	131590	72108	1478
0	131596	72108	1468
0	131602	72108	1458
0	131608	72108	1448
0	131614	72108	1438
0	131620	72108	1428
0	131626	72108	1418
0	131632	72108	1408
0	131638	72108	1398
0	131644	72108	1388
0	131650	72108	1378
0	131656	72108	1368
0	131662	72108	1358
0	131668	72108	1348
0	131674	72108	1338
0	131680	72108	1328
0	131686	72108	1318
0	131692	72108	1308
0	131698	72108	1298
0	131704	72108	1288
0	131710	72108	1278
0	131716	72108	1268
0	131722	72108	1258
0	131728	72108	1248
0	131734	72108	1238
0	131740	72108	1228
0	131746	72108	1218
0	131752	72108	1208
0	131758	72108	1198
0	131764	72108	1188
0	131770	72108	1178
0	131776	72108	1168
0	131782	72108	1158
0	131788	72108	1148
0	131794	72108	1138
0	131800	72108	1128
0	131806	72108	1118
0	131812	72108	1108
0	131818	72108	1098
0	131824	72108	1088
0	131830	72108	1078
0	131836	72108	1068
0	131842	72108	1058
0	131848	72108	1048
0	131854	72108	1038
0	131860	72108	1028
0	131866	72108	1018
0	131872	72108	1008
0	131878	72108	998
0	131884	72108	988
0	131890	72108	978
0	131896	72108	968
0	131902	72108	958
0	131908	72108	948
0	131914	72108	938
0	131920	72108	928
0	131926	72108	918
0	131932	72108	908
0	131938	72108	898
0	131944	72108	888
0	131950	72108	878
0	131956	72108	868
0	131962	72108	858
0	131968	72108	848
0	131974	72108	838
0	131980	72108	828
0	131986	72108	818
0	131992	72108	808
0	131998	72108	798
0	132004	72108	788
0	132010	72108	778
0	132016	72108	768
0	132022	72108	758
0	132028	72108	748
0	132034	72108	738
0	132040	72108	728
0	132046	72108	718
0	132052	72108	708
0	132058	72108	698
0	132064	72108	688
0	132070	72108	678
0	132076	72108	668
0	132082	72108	658
0	132088	72108	648
0	132094	72108	638
0	132100	72108	628
0	132106	72108	618
0	132112	72108	608
0	132118	72108	598
0	132124	72108	588
0	132130	72108	578
0	132136	72108	568
0	132142	72108	558
0	132148	72108	548
0	132154	72108	538
0	132160	72108	528
0	132166	72108	518
0	132172	72108	508
0	132178	72108	498
0	132184	72108	488
0	132190	72108	478
0	132196	72108	468
0	132202	72108	458
0	132208	72108	448
0	132214	72108	438
0	132220	72108	428
0	132226	72108	418
0	132232	72108	408
0	132238	72108	398
0	132244	72108	388
0	132250	72108	378
0	132256	72108	368
0	132262	72108	358
0	132268	72108	348
0	132274	72108	338
0	132280	72108	328
0	132286	72108	318
0	132292	72108	308
0	132298	72108	298
0	132304	72108	288
0	132310	72108	278
0	132316	72108	268
0	132322	72108	258
0	132328	72108	248
0	132334	72108	238
0	132340	72108	228
0	132346	72108	218
0	132352	72108	208
0	132358	72108	198
0	132364	72108	188
0	132370	72108	178
0	132376	72108	168
0	132382	72108	158
0	132388	72108	148
0	132394	72108	138
0	132400	72108	128
0	132406	72108	118
0	132412	72108	108
0	132418	72108	98
0	132424	72108	88
0	132430	72108	78
0	132436	72108	68
0	132442	72108	58
0	132448	72108	48
0	132454	72108	38
0	132460	72108	28
0	132466	72108	18
0	132472	72108	8
0	132496	72111	1
0	132521	72121	1
0	132548	72131	1
0	132573	72141	1
0	132598	72151	1
0	132623	72161	1
0	132652	72171	1
0	132678	72181	1
0	132704	72191	1
0	132730	72201	1
0	132759	72211	1
0	132788	72221	1
0	132815	72231	1
0	132842	72241	1
0	132869	72251	1
0	132896	72261	1
0	132923	72271	1
0	132950	72281	1
0	132979	72291	1
0	133006	72301	1
0	133033	72311	1
0	133060	72321	1
0	133087	72331	1
0	133116	72341	1
0	133143	72351	1
0	133171	72361	1
0	133199	72371	1
0	133227	72381	1
0	133257	72391	1
0	133285	72401	1
0	133313	72411	1
0	133343	72421	1
0	133371	72431	1
0	133399	72441	1
0	133430	72451	1
0	133459	72461	1
0	133488	72471	1
0	133517	72481	1
0	133548	72491	1
0	133578	72501	1
0	133608	72511	1
0	133638	72521	1
0	133668	72531	1
0	133700	72541	1
0	133730	72551	1
0	133760	72561	1
0	133790	72571	1
0	133822	72581	1
0	133852	72591	1
0	133884	72601	1
0	256921	73281	671
0	256936	73281	661
0	256942	73281	651
0	256948	73281	641
0	256954	73281	631
0	256960	73281	621
0	256966	73281	611
0	256972	73281	601
0	256978	73281	591
0	256984	73281	581
0	256990	73281	571
0	256996	73281	561
0	257002	73281	551
0	257008	73281	541
0	257014	73281	531
0	257020	73281	521
0	257026	73281	511
0	257032	73281	501
0	257038	73281	491
0	257044	73281	481
0	257050	73281	471
0	257056	73281	461
0	257062	73281	451
0	257068	73281	441
0	257074	73281	431
0	257080	73281	421
0	257086	73281	411
0	257092	73281	401
0	257098	73281	391
0	257104	73281	381
0	257110	73281	371
0	257116	73281	361
0	257122	73281	351
0	257128	73281	341
0	257134	73281	331
0	257140	73281	321
0	257146	73281	311
0	257152	73281	301
0	257158	73281	291
0	257164	73281	281
0	257170	73281	271
0	257176	73281	261
0	257182	73281	251
0	257188	73281	241
0	257194	73281	231
0	257200	73281	221
0	257206	73281	211
0	257212	73281	201
0	257218	73281	191
0	257224	73281	181
0	257230	73281	171
0	257236	73281	161
0	257242	73281	151
0	257248	73281	141
0	257254	73281	131
0	257260	73281	121
0	257266	73281	111
0	257272	73281	101
0	257278	73281	91
0	257284	73281	81
0	257290	73281	71
0	257296	73281	61
0	257302	73281	51
0	257308	73281	41
0	257314	73281	31
0	257320	73281	21
0	257326	73281	11
0	257332	73281	1
0	257376	73291	1
0	257429	73301	1
0	257485	73311	1
0	257539	73321	1
0	257593	73331	1
0	257649	73341	1
0	257704	73351	1
0	257759	73361	1
0	257814	73371	1
0	257869	73381	1
0	257929	73391	1
0	257983	73401	1
0	258037	73411	1
0	258091	73421	1
0	258147	73431	1
0	258204	73441	1
0	258259	73451	1
0	258314	73461	1
0	258369	73471	1
0	258424	73481	1
0	258479	73491	1
0	258536	73501	1
0	258596	73511	1
0	258652	73521	1
0	258708	73531	1
0	258764	73541	1
0	258820	73551	1
0	258876	73561	1
0	258932	73571	1
0	258993	73581	1
0	259050	73591	1
0	259110	73601	1
0	259168	73611	1
0	259228	73621	1
0	259286	73631	1
0	259347	73641	1
0	259409	73651	1
0	259469	73661	1
0	259529	73671	1
0	259589	73681	1
0	259649	73691	1
0	259709	73701	1
0	259769	73711	1
0	259829	73721	1
0	259889	73731	1
0	259949	73741	1
0	260009	73751	1
0	260069	73761	1
0	260131	73771	1
0	260193	73781	1
0	260256	73791	1
0	260320	73801	1
0	260384	73811	1
0	260445	73821	1
0	260506	73831	1
0	260567	73841	1
0	260628	73851	1
0	260689	73861	1
0	260750	73871	1
0	260811	73881	1
0	260872	73891	1
0	260933	73901	1
0	260994	73911	1
0	261055	73921	1
0	261116	73931	1
0	261180	73941	1
0	261242	73951	1
0	261304	73961	1
0	261366	73971	1
0	261428	73981	1
0	261490	73991	1
0	261557	74001	1
0	261620	74011	1
0	261684	74021	1
0	261753	74031	1
0	261818	74041	1
0	261883	74051	1
0	261948	74061	1
0	262013	74071	1
0	262078	74081	1
0	262143	74091	1
0	262210	74101	1
0	262275	74111	1
0	262343	74121	1
0	262409	74131	1
0	262475	74141	1
0	262543	74151	1
0	262610	74161	1
0	262677	74171	1
0	262746	74181	1
0	262814	74191	1
0	262883	74201	1
0	262953	74211	1
0	263022	74221	1
0	263093	74231	1
0	263163	74241	1
0	263233	74251	1
0	263303	74261	1
0	263373	74271	1
0	263445	74281	1
0	263515	74291	1
0	263587	74301	1
0	263660	74311	1
0	263732	74321	1
0	263804	74331	1
0	263876	74341	1
0	263950	74351	1
0	264027	74361	1
0	264103	74371	1
0	264177	74381	1
0	264251	74391	1
0	264325	74401	1
0	264399	74411	1
0	264475	74421	1
0	264549	74431	1
0	264623	74441	1
0	264697	74451	1
0	264773	74461	1
0	264847	74471	1
0	264921	74481	1
0	264998	74491	1
0	265073	74501	1
0	265148	74511	1
0	265223	74521	1
0	265298	74531	1
0	265373	74541	1
0	265453	74551	1
0	265529	74561	1
0	265605	74571	1
0	265683	74581	1
0	265761	74591	1
0	265837	74601	1
0	265917	74611	1
0	265994	74621	1
0	266073	74631	1
0	266155	74641	1
0	266236	74651	1
0	266318	74661	1
0	266398	74671	1
0	266478	74681	1
0	266558	74691	1
0	266638	74701	1
0	266718	74711	1
0	266800	74721	1
0	266880	74731	1
0	266964	74741	1
0	267048	74751	1
0	267130	74761	1
0	267216	74771	1
0	267299	74781	1
0	267382	74791	1
0	267467	74801	1
0	267553	74811	1
0	267639	74821	1
0	267723	74831	1
0	267807	74841	1
0	267893	74851	1
0	267977	74861	1
0	268061	74871	1
0	268145	74881	1
0	268229	74891	1
0	268312	74901	1
0	268395	74911	1
0	268478	74921	1
0	268561	74931	1
0	268644	74941	1
0	268727	74951	1
0	268810	74961	1
0	268893	74971	1
0	268976	74981	1
0	269062	74991	1
0	269146	75001	1
0	269230	75011	1
0	269316	75021	1
0	269400	75031	1
0	269486	75041	1
0	269570	75051	1
0	269654	75061	1
0	269738	75071	1
0	269822	75081	1
0	269909	75091	1
0	269996	75101	1
0	270081	75111	1
0	270167	75121	1
0	270256	75131	1
0	270345	75141	1
0	270437	75151	1
0	270525	75161	1
0	270616	75171	1
0	270705	75181	1
0	270796	75191	1
0	270887	75201	1
0	270977	75211	1
0	271067	75221	1
0	271157	75231	1
0	271247	75241	1
0	271337	75251	1
0	271427	75261	1
0	271519	75271	1
0	271610	75281	1
0	271701	75291	1
0	271792	75301	1
0	271882	75311	1
0	271972	75321	1
0	272065	75331	1
0	272156	75341	1
0	272250	75351	1
0	272342	75361	1
0	272432	75371	1
0	272522	75381	1
0	272612	75391	1
0	272702	75401	1
0	272795	75411	1
0	272886	75421	1
0	272977	75431	1
0	273068	75441	1
0	273159	75451	1
0	273254	75461	1
0	273347	75471	1
0	273438	75481	1
0	273529	75491	1
0	273623	75501	1
0	273715	75511	1
0	273807	75521	1
0	273899	75531	1
0	273993	75541	1
0	274086	75551	1
0	274180	75561	1
0	274272	75571	1
0	274365	75581	1
0	274456	75591	1
0	274547	75601	1
0	274640	75611	1
0	274730	75621	1
0	274822	75631	1
0	274912	75641	1
0	275002	75651	1
0	275092	75661	1
0	275185	75671	1
0	275278	75681	1
0	275369	75691	1
0	275460	75701	1
0	275551	75711	1
0	275645	75721	1
0	275738	75731	1
0	275829	75741	1
0	275922	75751	1
0	276015	75761	1
0	276110	75771	1
0	276200	75781	1
0	276290	75791	1
0	276385	75801	1
0	276476	75811	1
0	276567	75821	1
0	276661	75831	1
0	276753	75841	1
0	276845	75851	1
0	276937	75861	1
0	277032	75871	1
0	277128	75881	1
0	277220	75891	1
0	277314	75901	1
0	277406	75911	1
0	277498	75921	1
0	277591	75931	1
0	277685	75941	1
0	277776	75951	1
0	277867	75961	1
0	277958	75971	1
0	278049	75981	1
0	278140	75991	1
0	278231	76001	1
0	278322	76011	1
0	278413	76021	1
0	278507	76031	1
0	278599	76041	1
0	278689	76051	1
0	278782	76061	1
0	278872	76071	1
0	278964	76081	1
0	279054	76091	1
0	279144	76101	1
0	279236	76111	1
0	279327	76121	1
0	279422	76131	1
0	279514	76141	1
0	279606	76151	1
0	279698	76161	1
0	279792	76171	1
0	279885	76181	1
0	279978	76191	1
0	280071	76201	1
0	280164	76211	1
0	280258	76221	1
0	280351	76231	1
0	280443	76241	1
0	280535	76251	1
0	280628	76261	1
0	280722	76271	1
0	280814	76281	1
0	280906	76291	1
0	280997	76301	1
0	281088	76311	1
0	281188	76321	1
0	281278	76331	1
0	281368	76341	1
0	281457	76351	1
0	281546	76361	1
0	281635	76371	1
0	281726	76381	1
0	281815	76391	1
0	281905	76401	1
0	281993	76411	1
0	282081	76421	1
0	282171	76431	1
0	282259	76441	1
0	282347	76451	1
0	282436	76461	1
0	282523	76471	1
0	282609	76481	1
0	282694	76491	1
0	282779	76501	1
0	282863	76511	1
0	282947	76521	1
0	283030	76531	1
0	283114	76541	1
0	283197	76551	1
0	283284	76561	1
0	283367	76571	1
0	283450	76581	1
0	283533	76591	1
0	283617	76601	1
0	283700	76611	1
0	283783	76621	1
0	283866	76631	1
0	283948	76641	1
0	284033	76651	1
0	284116	76661	1
0	284198	76671	1
0	284282	76681	1
0	284364	76691	1
0	284446	76701	1
0	284528	76711	1
0	284610	76721	1
0	284692	76731	1
0	284777	76741	1
0	284860	76751	1
0	284942	76761	1
0	285024	76771	1
0	285106	76781	1
0	285189	76791	1
0	285270	76801	1
0	285353	76811	1
0	285434	76821	1
0	285515	76831	1
0	285596	76841	1
0	285679	76851	1
0	285760	76861	1
0	285841	76871	1
0	285921	76881	1
0	286001	76891	1
0	286080	76901	1
0	286159	76911	1
0	286238	76921	1
0	286317	76931	1
0	286396	76941	1
0	286475	76951	1
0	286554	76961	1
0	286632	76971	1
0	286710	76981	1
0	286789	76991	1
0	286867	77001	1
0	286946	77011	1
0	287024	77021	1
0	287105	77031	1
0	287181	77041	1
0	287261	77051	1
0	287340	77061	1
0	287416	77071	1
0	287494	77081	1
0	287571	77091	1
0	287647	77101	1
0	287723	77111	1
0	287801	77121	1
0	287877	77131	1
0	287953	77141	1
0	288028	77151	1
0	288103	77161	1
0	288177	77171	1
0	288250	77181	1
0	288323	77191	1
0	288396	77201	1
0	288469	77211	1
0	288545	77221	1
0	288619	77231	1
0	288693	77241	1
0	288767	77251	1
0	288844	77261	1
0	288919	77271	1
0	288993	77281	1
0	289068	77291	1
0	289142	77301	1
0	289216	77311	1
0	289290	77321	1
0	289364	77331	1
0	289439	77341	1
0	289514	77351	1
0	289589	77361	1
0	289664	77371	1
0	289738	77381	1
0	289811	77391	1
0	289883	77401	1
0	289955	77411	1
0	290027	77421	1
0	290099	77431	1
0	290171	77441	1
0	290243	77451	1
0	290315	77461	1
0	290387	77471	1
0	290459	77481	1
0	290531	77491	1
0	290603	77501	1
0	290675	77511	1
0	290752	77521	1
0	290825	77531	1
0	290898	77541	1
0	290971	77551	1
0	291045	77561	1
0	291118	77571	1
0	291192	77581	1
0	291264	77591	1
0	291336	77601	1
0	291409	77611	1
0	291481	77621	1
0	291553	77631	1
0	291626	77641	1
0	291697	77651	1
0	291768	77661	1
0	291842	77671	1
0	291915	77681	1
0	291986	77691	1
0	292056	77701	1
0	292126	77711	1
0	292196	77721	1
0	292265	77731	1
0	292336	77741	1
0	292404	77751	1
0	292471	77761	1
0	292538	77771	1
0	292604	77781	1
0	292671	77791	1
0	292736	77801	1
0	292801	77811	1
0	292867	77821	1
0	292931	77831	1
0	292995	77841	1
0	293059	77851	1
0	293124	77861	1
0	293191	77871	1
0	293256	77881	1
0	293322	77891	1
0	293387	77901	1
0	293455	77911	1
0	293527	77921	1
0	293592	77931	1
0	293657	77941	1
0	293721	77951	1
0	293785	77961	1
0	293849	77971	1
0	293913	77981	1
0	293979	77991	1
0	294042	78001	1
0	294106	78011	1
0	294172	78021	1
0	294234	78031	1
0	294297	78041	1
0	294359	78051	1
0	294420	78061	1
0	294482	78071	1
0	294546	78081	1
0	294607	78091	1
0	294668	78101	1
0	294730	78111	1
0	294790	78121	1
0	294850	78131	1
0	294910	78141	1
0	294970	78151	1
0	295034	78161	1
0	295093	78171	1
0	295152	78181	1
0	295211	78191	1
0	295270	78201	1
0	295328	78211	1
0	295386	78221	1
0	295444	78231	1
0	295502	78241	1
0	295561	78251	1
0	295618	78261	1
0	295676	78271	1
0	295734	78281	1
0	295792	78291	1
0	295849	78301	1
0	295907	78311	1
0	295963	78321	1
0	296019	78331	1
0	296075	78341	1
0	296130	78351	1
0	296185	78361	1
0	296240	78371	1
0	296295	78381	1
0	296350	78391	1
0	296409	78401	1
0	296465	78411	1
0	296523	78421	1
0	296579	78431	1
0	296637	78441	1
0	296693	78451	1
0	296749	78461	1
0	296805	78471	1
0	296861	78481	1
0	296917	78491	1
0	296973	78501	1
0	297029	78511	1
0	297085	78521	1
0	297144	78531	1
0	297198	78541	1
0	297256	78551	1
0	297310	78561	1
0	297364	78571	1
0	297419	78581	1
0	297474	78591	1
0	297527	78601	1
0	297581	78611	1
0	297633	78621	1
0	297685	78631	1
0	297737	78641	1
0	297789	78651	1
0	297841	78661	1
0	297895	78671	1
0	297949	78681	1
0	298001	78691	1
0	298053	78701	1
0	298104	78711	1
0	298155	78721	1
0	298206	78731	1
0	298257	78741	1
0	298309	78751	1
0	298360	78761	1
0	298411	78771	1
0	298462	78781	1
0	298512	78791	1
0	298562	78801	1
0	298612	78811	1
0	298662	78821	1
0	298711	78831	1
0	298760	78841	1
0	298809	78851	1
0	298859	78861	1
0	298910	78871	1
0	298960	78881	1
0	299012	78891	1
0	299062	78901	1
0	299112	78911	1
0	299161	78921	1
0	299211	78931	1
0	299260	78941	1
0	299309	78951	1
0	299358	78961	1
0	299407	78971	1
0	299455	78981	1
0	299503	78991	1
0	299551	79001	1
0	299599	79011	1
0	299647	79021	1
0	299696	79031	1
0	299744	79041	1
0	299792	79051	1
0	299841	79061	1
0	299889	79071	1
0	299937	79081	1
0	299985	79091	1
0	300033	79101	1
0	300082	79111	1
0	300130	79121	1
0	300179	79131	1
0	300229	79141	1
0	300276	79151	1
0	300323	79161	1
0	300373	79171	1
0	300421	79181	1
0	300469	79191	1
0	300517	79201	1
0	300565	79211	1
0	300614	79221	1
0	300662	79231	1
0	300710	79241	1
0	300759	79251	1
0	300807	79261	1
0	300855	79271	1
0	300905	79281	1
0	300953	79291	1
0	301003	79301	1
0	301051	79311	1
0	301099	79321	1
0	301146	79331	1
0	301193	79341	1
0	301242	79351	1
0	301289	79361	1
0	301335	79371	1
0	301380	79381	1
0	301427	79391	1
0	301475	79401	1
0	301520	79411	1
0	301565	79421	1
0	301610	79431	1
0	301655	79441	1
0	301701	79451	1
0	301746	79461	1
0	301793	79471	1
0	301837	79481	1
0	301882	79491	1
0	301926	79501	1
0	301971	79511	1
0	302014	79521	1
0	302057	79531	1
0	302111	79541	1
0	302163	79551	1
0	302214	79561	1
0	302265	79571	1
0	302316	79581	1
0	302369	79591	1
0	302420	79601	1
0	302472	79611	1
0	302524	79621	1
0	302575	79631	1
0	302627	79641	1
0	302678	79651	1
0	302729	79661	1
0	302782	79671	1
0	302833	79681	1
0	302884	79691	1
0	302935	79701	1
0	302986	79711	1
0	303036	79721	1
0	303089	79731	1
0	303140	79741	1
0	303190	79751	1
0	303240	79761	1
0	303290	79771	1
0	303340	79781	1
0	303390	79791	1
0	303447	79801	1
0	303496	79811	1
0	303544	79821	1
0	303592	79831	1
0	303642	79841	1
0	303694	79851	1
0	303744	79861	1
0	303795	79871	1
0	303845	79881	1
0	303897	79891	1
0	303948	79901	1
0	303997	79911	1
0	304046	79921	1
0	304094	79931	1
0	304142	79941	1
0	304190	79951	1
0	304238	79961	1
0	304288	79971	1
0	304336	79981	1
0	304384	79991	1

