version 2
run General-0-20250127-19:42:38-2947
attr configname General
attr datetime 20250127-19:42:38
attr experiment General
attr inifile shaw_mine.ini
attr iterationvars ""
attr iterationvarsf ""
attr measurement ""
attr network src.dtnsim
attr processid 2947
attr repetition 0
attr replication #0
attr resultdir results
attr runnumber 0
attr seedset 0
param dtnsim.central.contactsFile "\"contactPlan/Contacts.txt\""
param dtnsim.central.contactsFile_A "\"contactPlan/Contacts.txt\""
param dtnsim.central.contactsFile_B "\"contactPlan/Contacts.txt\""
param dtnsim.central.contactIdsToDelete "\"7 9 15 16 18 21 24 25 45 50 53 56 59 66 68 77 79 81 91 94 95 96 97 102 106 111 115 122 127 128 129 130 131 132 134 135 136 137 139 148 150 152 153 156 161 162 164 165 168 172 173 182 185 186 199 200 205 211 214 220 231 234 237 243 244 247 249 252 256 257 262 268 280 283 291 293 298 302 304 316 329 330 331 335 336 348 349 358 359 360 361 366 368 371 373 376 380 383 384 388\""
param dtnsim.central.contactIdsToDelete_from_celestialA "\"9 15 25 50 53 56 59 66 77 79 95 96 97 102 106 127 129 132 136 137 139 148 156 161 165 182 186 199 205 220 234 237 244 247 256 257 280 283 291 293 298 304 316 331 335 349 360 368 371 373 380 384 388\""
param dtnsim.central.contactIdsToDelete_from_celestialB "\"7 16 18 21 24 45 68 81 91 94 111 115 122 128 130 131 134 135 150 152 153 162 164 168 172 173 185 200 211 214 231 243 249 252 262 268 302 329 330 336 348 358 359 361 366 376 383\""
param dtnsim.central.celestialA_nodes "\"1 2 3\""
param dtnsim.central.celestialB_nodes "\"4 5 6\""
param dtnsim.central.locallyfaultsAware true
param dtnsim.central.mode_two_celestial true
param dtnsim.central.faultsAware false
param dtnsim.nodesNumber 6
param dtnsim.node[1].icon "\"receiverdish\""
param dtnsim.node[2..5].icon "\"satellite\""
param dtnsim.node[6].icon "\"receiverdish\""
param dtnsim.node[*].dtn.routing "\"cgrModel350\""
param dtnsim.node[*].dtn.routingType "\"routeListType:allPaths-firstEnding,volumeAware:allContacts,extensionBlock:on,contactPlan:global\""
param dtnsim.node[1].app.enable true
param dtnsim.node[1].app.custodyTransfer true
param dtnsim.node[1].app.bundlesNumber "\"2000\""
param dtnsim.node[1].app.start "\"0\""
param dtnsim.node[1].app.destinationEid "\"6\""
param dtnsim.node[1].app.size "\"1500\""
param dtnsim.node[1].app.interval 10
param dtnsim.node[*].app.custodyTimeout 10000
param dtnsim.node[1].app.ttl 5000

vector 0 dtnsim.node[6].app appBundleReceivedDelayvec:vector ETV
attr interpolationmode none
attr source appBundleReceivedDelay
attr title "appBundleReceivedDelayvec, vector"
0	1638	531.21	531.21
0	1639	531.21	521.21
0	1640	531.21	511.21
0	1641	531.21	501.21
0	1642	531.21	491.21
0	1643	531.21	481.21
0	1644	531.21	471.21
0	1645	531.21	461.21
0	1646	531.21	451.21
0	1647	531.21	441.21
0	1648	531.21	431.21
0	1649	531.21	421.21
0	1650	531.21	411.21
0	1651	531.21	401.21
0	1652	531.21	391.21
0	1653	531.21	381.21
0	1654	531.21	371.21
0	1655	531.21	361.21
0	1656	531.21	351.21
0	1657	531.21	341.21
0	1658	531.21	331.21
0	1659	531.21	321.21
0	1660	531.21	311.21
0	1661	531.21	301.21
0	1662	531.21	291.21
0	1663	531.21	281.21
0	1664	531.21	271.21
0	1665	531.21	261.21
0	1666	531.21	251.21
0	1667	531.21	241.21
0	1668	531.21	231.21
0	1669	531.21	221.21
0	1670	531.21	211.21
0	1671	531.21	201.21
0	1884	540.21	200.21
0	1936	550.21	200.21
0	1986	560.21	200.21
0	2039	570.21	200.21
0	2092	580.21	200.21
0	2143	590.21	200.21
0	2194	600.21	200.21
0	2245	610.21	200.21
0	2296	620.21	200.21
0	2347	630.21	200.21
0	2874	631.21	631.21
0	2875	631.21	621.21
0	2876	631.21	611.21
0	2877	631.21	601.21
0	2878	631.21	591.21
0	2879	631.21	581.21
0	2880	631.21	571.21
0	2881	631.21	561.21
0	2882	631.21	551.21
0	2883	631.21	541.21
0	2884	631.21	531.21
0	2885	631.21	521.21
0	2886	631.21	511.21
0	2887	631.21	501.21
0	2888	631.21	491.21
0	2889	631.21	481.21
0	2890	631.21	471.21
0	2891	631.21	461.21
0	2892	631.21	451.21
0	2893	631.21	441.21
0	2894	631.21	431.21
0	2895	631.21	421.21
0	2896	631.21	411.21
0	2897	631.21	401.21
0	2898	631.21	391.21
0	2899	631.21	381.21
0	2900	631.21	371.21
0	2901	631.21	361.21
0	2902	631.21	351.21
0	2903	631.21	341.21
0	2904	631.21	331.21
0	2905	631.21	321.21
0	2906	631.21	311.21
0	2907	631.21	301.21
0	3136	640.21	300.21
0	3137	640.21	200.21
0	3208	650.21	300.21
0	3209	650.21	200.21
0	3280	660.21	300.21
0	3281	660.21	200.21
0	3352	670.21	300.21
0	3353	670.21	200.21
0	3424	680.21	300.21
0	3425	680.21	200.21
0	3496	690.21	300.21
0	3497	690.21	200.21
0	3568	700.21	300.21
0	3569	700.21	200.21
0	3640	710.21	300.21
0	3641	710.21	200.21
0	3712	720.21	300.21
0	3713	720.21	200.21
0	3784	730.21	300.21
0	3785	730.21	200.21
0	4317	731.21	731.21
0	4318	731.21	721.21
0	4319	731.21	711.21
0	4320	731.21	701.21
0	4321	731.21	691.21
0	4322	731.21	681.21
0	4323	731.21	671.21
0	4324	731.21	661.21
0	4325	731.21	651.21
0	4326	731.21	641.21
0	4327	731.21	631.21
0	4328	731.21	621.21
0	4329	731.21	611.21
0	4330	731.21	601.21
0	4331	731.21	591.21
0	4332	731.21	581.21
0	4333	731.21	571.21
0	4334	731.21	561.21
0	4335	731.21	551.21
0	4336	731.21	541.21
0	4337	731.21	531.21
0	4338	731.21	521.21
0	4339	731.21	511.21
0	4340	731.21	501.21
0	4341	731.21	491.21
0	4342	731.21	481.21
0	4343	731.21	471.21
0	4344	731.21	461.21
0	4345	731.21	451.21
0	4346	731.21	441.21
0	4347	731.21	431.21
0	4348	731.21	421.21
0	4349	731.21	411.21
0	4350	731.21	401.21
0	4662	740.21	400.21
0	4663	740.21	300.21
0	4664	740.21	200.21
0	4757	750.21	400.21
0	4758	750.21	300.21
0	4759	750.21	200.21
0	4852	760.21	400.21
0	4853	760.21	300.21
0	4854	760.21	200.21
0	4947	770.21	400.21
0	4948	770.21	300.21
0	4949	770.21	200.21
0	5042	780.21	400.21
0	5043	780.21	300.21
0	5044	780.21	200.21
0	5137	790.21	400.21
0	5138	790.21	300.21
0	5139	790.21	200.21
0	5232	800.21	400.21
0	5233	800.21	300.21
0	5234	800.21	200.21
0	5327	810.21	400.21
0	5328	810.21	300.21
0	5329	810.21	200.21
0	5422	820.21	400.21
0	5423	820.21	300.21
0	5424	820.21	200.21
0	5517	830.21	400.21
0	5518	830.21	300.21
0	5519	830.21	200.21
0	5952	831.21	831.21
0	5953	831.21	821.21
0	5954	831.21	811.21
0	5955	831.21	801.21
0	5956	831.21	791.21
0	5957	831.21	781.21
0	5958	831.21	771.21
0	5959	831.21	761.21
0	5960	831.21	751.21
0	5961	831.21	741.21
0	5962	831.21	731.21
0	5963	831.21	721.21
0	5964	831.21	711.21
0	5965	831.21	701.21
0	5966	831.21	691.21
0	5967	831.21	681.21
0	5968	831.21	671.21
0	5969	831.21	661.21
0	5970	831.21	651.21
0	5971	831.21	641.21
0	5972	831.21	631.21
0	5973	831.21	621.21
0	5974	831.21	611.21
0	5975	831.21	601.21
0	5976	831.21	591.21
0	5977	831.21	581.21
0	5978	831.21	571.21
0	5979	831.21	561.21
0	5980	831.21	551.21
0	5981	831.21	541.21
0	5982	831.21	531.21
0	5983	831.21	521.21
0	5984	831.21	511.21
0	5985	831.21	501.21
0	6309	840.21	500.21
0	6310	840.21	400.21
0	6311	840.21	300.21
0	6312	840.21	200.21
0	6424	850.21	500.21
0	6425	850.21	400.21
0	6426	850.21	300.21
0	6427	850.21	200.21
0	6539	860.21	500.21
0	6540	860.21	400.21
0	6541	860.21	300.21
0	6542	860.21	200.21
0	6654	870.21	500.21
0	6655	870.21	400.21
0	6656	870.21	300.21
0	6657	870.21	200.21
0	6769	880.21	500.21
0	6770	880.21	400.21
0	6771	880.21	300.21
0	6772	880.21	200.21
0	6884	890.21	500.21
0	6885	890.21	400.21
0	6886	890.21	300.21
0	6887	890.21	200.21
0	6999	900.21	500.21
0	7000	900.21	400.21
0	7001	900.21	300.21
0	7002	900.21	200.21
0	7114	910.21	500.21
0	7115	910.21	400.21
0	7116	910.21	300.21
0	7117	910.21	200.21
0	7229	920.21	500.21
0	7230	920.21	400.21
0	7231	920.21	300.21
0	7232	920.21	200.21
0	7344	930.21	500.21
0	7345	930.21	400.21
0	7346	930.21	300.21
0	7347	930.21	200.21
0	7753	931.21	931.21
0	7754	931.21	921.21
0	7755	931.21	911.21
0	7756	931.21	901.21
0	7757	931.21	891.21
0	7758	931.21	881.21
0	7759	931.21	871.21
0	7760	931.21	861.21
0	7761	931.21	851.21
0	7762	931.21	841.21
0	7763	931.21	831.21
0	7764	931.21	821.21
0	7765	931.21	811.21
0	7766	931.21	801.21
0	7767	931.21	791.21
0	7768	931.21	781.21
0	7769	931.21	771.21
0	7770	931.21	761.21
0	7771	931.21	751.21
0	7772	931.21	741.21
0	7773	931.21	731.21
0	7774	931.21	721.21
0	7775	931.21	711.21
0	7776	931.21	701.21
0	7777	931.21	691.21
0	7778	931.21	681.21
0	7779	931.21	671.21
0	7780	931.21	661.21
0	7781	931.21	651.21
0	7782	931.21	641.21
0	7783	931.21	631.21
0	7784	931.21	621.21
0	7785	931.21	611.21
0	7786	931.21	601.21
0	8121	940.21	600.21
0	8122	940.21	500.21
0	8123	940.21	400.21
0	8124	940.21	300.21
0	8125	940.21	200.21
0	8255	950.21	600.21
0	8256	950.21	500.21
0	8257	950.21	400.21
0	8258	950.21	300.21
0	8259	950.21	200.21
0	8389	960.21	600.21
0	8390	960.21	500.21
0	8391	960.21	400.21
0	8392	960.21	300.21
0	8393	960.21	200.21
0	8523	970.21	600.21
0	8524	970.21	500.21
0	8525	970.21	400.21
0	8526	970.21	300.21
0	8527	970.21	200.21
0	8657	980.21	600.21
0	8658	980.21	500.21
0	8659	980.21	400.21
0	8660	980.21	300.21
0	8661	980.21	200.21
0	8791	990.21	600.21
0	8792	990.21	500.21
0	8793	990.21	400.21
0	8794	990.21	300.21
0	8795	990.21	200.21
0	8925	1000.21	600.21
0	8926	1000.21	500.21
0	8927	1000.21	400.21
0	8928	1000.21	300.21
0	8929	1000.21	200.21
0	9059	1010.21	600.21
0	9060	1010.21	500.21
0	9061	1010.21	400.21
0	9062	1010.21	300.21
0	9063	1010.21	200.21
0	9193	1020.21	600.21
0	9194	1020.21	500.21
0	9195	1020.21	400.21
0	9196	1020.21	300.21
0	9197	1020.21	200.21
0	9327	1030.21	600.21
0	9328	1030.21	500.21
0	9329	1030.21	400.21
0	9330	1030.21	300.21
0	9331	1030.21	200.21
0	9564	1040.21	600.21
0	9565	1040.21	500.21
0	9566	1040.21	400.21
0	9567	1040.21	300.21
0	9568	1040.21	200.21
0	9701	1050.21	600.21
0	9702	1050.21	500.21
0	9703	1050.21	400.21
0	9704	1050.21	300.21
0	9705	1050.21	200.21
0	9838	1060.21	600.21
0	9839	1060.21	500.21
0	9840	1060.21	400.21
0	9841	1060.21	300.21
0	9842	1060.21	200.21
0	9975	1070.21	600.21
0	9976	1070.21	500.21
0	9977	1070.21	400.21
0	9978	1070.21	300.21
0	9979	1070.21	200.21
0	10112	1080.21	600.21
0	10113	1080.21	500.21
0	10114	1080.21	400.21
0	10115	1080.21	300.21
0	10116	1080.21	200.21
0	10249	1090.21	600.21
0	10250	1090.21	500.21
0	10251	1090.21	400.21
0	10252	1090.21	300.21
0	10253	1090.21	200.21
0	10386	1100.21	600.21
0	10387	1100.21	500.21
0	10388	1100.21	400.21
0	10389	1100.21	300.21
0	10390	1100.21	200.21
0	10523	1110.21	600.21
0	10524	1110.21	500.21
0	10525	1110.21	400.21
0	10526	1110.21	300.21
0	10527	1110.21	200.21
0	10660	1120.21	600.21
0	10661	1120.21	500.21
0	10662	1120.21	400.21
0	10663	1120.21	300.21
0	10664	1120.21	200.21
0	10797	1130.21	600.21
0	10798	1130.21	500.21
0	10799	1130.21	400.21
0	10800	1130.21	300.21
0	10801	1130.21	200.21
0	11002	1140.21	600.21
0	11003	1140.21	500.21
0	11004	1140.21	400.21
0	11005	1140.21	300.21
0	11006	1140.21	200.21
0	11141	1150.21	600.21
0	11142	1150.21	500.21
0	11143	1150.21	400.21
0	11144	1150.21	300.21
0	11145	1150.21	200.21
0	11280	1160.21	600.21
0	11281	1160.21	500.21
0	11282	1160.21	400.21
0	11283	1160.21	300.21
0	11284	1160.21	200.21
0	11419	1170.21	600.21
0	11420	1170.21	500.21
0	11421	1170.21	400.21
0	11422	1170.21	300.21
0	11423	1170.21	200.21
0	11558	1180.21	600.21
0	11559	1180.21	500.21
0	11560	1180.21	400.21
0	11561	1180.21	300.21
0	11562	1180.21	200.21
0	11697	1190.21	600.21
0	11698	1190.21	500.21
0	11699	1190.21	400.21
0	11700	1190.21	300.21
0	11701	1190.21	200.21
0	11836	1200.21	600.21
0	11837	1200.21	500.21
0	11838	1200.21	400.21
0	11839	1200.21	300.21
0	11840	1200.21	200.21
0	11975	1210.21	600.21
0	11976	1210.21	500.21
0	11977	1210.21	400.21
0	11978	1210.21	300.21
0	11979	1210.21	200.21
0	12114	1220.21	600.21
0	12115	1220.21	500.21
0	12116	1220.21	400.21
0	12117	1220.21	300.21
0	12118	1220.21	200.21
0	12253	1230.21	600.21
0	12254	1230.21	500.21
0	12255	1230.21	400.21
0	12256	1230.21	300.21
0	12257	1230.21	200.21
0	12392	1240.21	600.21
0	12393	1240.21	500.21
0	12394	1240.21	400.21
0	12395	1240.21	300.21
0	12396	1240.21	200.21
0	12531	1250.21	600.21
0	12532	1250.21	500.21
0	12533	1250.21	400.21
0	12534	1250.21	300.21
0	12535	1250.21	200.21
0	12670	1260.21	600.21
0	12671	1260.21	500.21
0	12672	1260.21	400.21
0	12673	1260.21	300.21
0	12674	1260.21	200.21
0	12809	1270.21	600.21
0	12810	1270.21	500.21
0	12811	1270.21	400.21
0	12812	1270.21	300.21
0	12813	1270.21	200.21
0	12948	1280.21	600.21
0	12949	1280.21	500.21
0	12950	1280.21	400.21
0	12951	1280.21	300.21
0	12952	1280.21	200.21
0	13087	1290.21	600.21
0	13088	1290.21	500.21
0	13089	1290.21	400.21
0	13090	1290.21	300.21
0	13091	1290.21	200.21
0	13226	1300.21	600.21
0	13227	1300.21	500.21
0	13228	1300.21	400.21
0	13229	1300.21	300.21
0	13230	1300.21	200.21
0	13365	1310.21	600.21
0	13366	1310.21	500.21
0	13367	1310.21	400.21
0	13368	1310.21	300.21
0	13369	1310.21	200.21
0	13504	1320.21	600.21
0	13505	1320.21	500.21
0	13506	1320.21	400.21
0	13507	1320.21	300.21
0	13508	1320.21	200.21
0	13643	1330.21	600.21
0	13644	1330.21	500.21
0	13645	1330.21	400.21
0	13646	1330.21	300.21
0	13647	1330.21	200.21
0	13782	1340.21	600.21
0	13783	1340.21	500.21
0	13784	1340.21	400.21
0	13785	1340.21	300.21
0	13786	1340.21	200.21
0	13921	1350.21	600.21
0	13922	1350.21	500.21
0	13923	1350.21	400.21
0	13924	1350.21	300.21
0	13925	1350.21	200.21
0	14060	1360.21	600.21
0	14061	1360.21	500.21
0	14062	1360.21	400.21
0	14063	1360.21	300.21
0	14064	1360.21	200.21
0	14199	1370.21	600.21
0	14200	1370.21	500.21
0	14201	1370.21	400.21
0	14202	1370.21	300.21
0	14203	1370.21	200.21
0	14338	1380.21	600.21
0	14339	1380.21	500.21
0	14340	1380.21	400.21
0	14341	1380.21	300.21
0	14342	1380.21	200.21
0	14477	1390.21	600.21
0	14478	1390.21	500.21
0	14479	1390.21	400.21
0	14480	1390.21	300.21
0	14481	1390.21	200.21
0	14616	1400.21	600.21
0	14617	1400.21	500.21
0	14618	1400.21	400.21
0	14619	1400.21	300.21
0	14620	1400.21	200.21
0	14755	1410.21	600.21
0	14756	1410.21	500.21
0	14757	1410.21	400.21
0	14758	1410.21	300.21
0	14759	1410.21	200.21
0	14894	1420.21	600.21
0	14895	1420.21	500.21
0	14896	1420.21	400.21
0	14897	1420.21	300.21
0	14898	1420.21	200.21
0	15033	1430.21	600.21
0	15034	1430.21	500.21
0	15035	1430.21	400.21
0	15036	1430.21	300.21
0	15037	1430.21	200.21
0	15172	1440.21	600.21
0	15173	1440.21	500.21
0	15174	1440.21	400.21
0	15175	1440.21	300.21
0	15176	1440.21	200.21
0	15311	1450.21	600.21
0	15312	1450.21	500.21
0	15313	1450.21	400.21
0	15314	1450.21	300.21
0	15315	1450.21	200.21
0	15450	1460.21	600.21
0	15451	1460.21	500.21
0	15452	1460.21	400.21
0	15453	1460.21	300.21
0	15454	1460.21	200.21
0	15589	1470.21	600.21
0	15590	1470.21	500.21
0	15591	1470.21	400.21
0	15592	1470.21	300.21
0	15593	1470.21	200.21
0	15728	1480.21	600.21
0	15729	1480.21	500.21
0	15730	1480.21	400.21
0	15731	1480.21	300.21
0	15732	1480.21	200.21
0	15867	1490.21	600.21
0	15868	1490.21	500.21
0	15869	1490.21	400.21
0	15870	1490.21	300.21
0	15871	1490.21	200.21
0	16006	1500.21	600.21
0	16007	1500.21	500.21
0	16008	1500.21	400.21
0	16009	1500.21	300.21
0	16010	1500.21	200.21
0	16145	1510.21	600.21
0	16146	1510.21	500.21
0	16147	1510.21	400.21
0	16148	1510.21	300.21
0	16149	1510.21	200.21
0	16284	1520.21	600.21
0	16285	1520.21	500.21
0	16286	1520.21	400.21
0	16287	1520.21	300.21
0	16288	1520.21	200.21
0	16423	1530.21	600.21
0	16424	1530.21	500.21
0	16425	1530.21	400.21
0	16426	1530.21	300.21
0	16427	1530.21	200.21
0	16562	1540.21	600.21
0	16563	1540.21	500.21
0	16564	1540.21	400.21
0	16565	1540.21	300.21
0	16566	1540.21	200.21
0	16701	1550.21	600.21
0	16702	1550.21	500.21
0	16703	1550.21	400.21
0	16704	1550.21	300.21
0	16705	1550.21	200.21
0	16840	1560.21	600.21
0	16841	1560.21	500.21
0	16842	1560.21	400.21
0	16843	1560.21	300.21
0	16844	1560.21	200.21
0	16979	1570.21	600.21
0	16980	1570.21	500.21
0	16981	1570.21	400.21
0	16982	1570.21	300.21
0	16983	1570.21	200.21
0	17118	1580.21	600.21
0	17119	1580.21	500.21
0	17120	1580.21	400.21
0	17121	1580.21	300.21
0	17122	1580.21	200.21
0	17257	1590.21	600.21
0	17258	1590.21	500.21
0	17259	1590.21	400.21
0	17260	1590.21	300.21
0	17261	1590.21	200.21
0	17396	1600.21	600.21
0	17397	1600.21	500.21
0	17398	1600.21	400.21
0	17399	1600.21	300.21
0	17400	1600.21	200.21
0	17535	1610.21	600.21
0	17536	1610.21	500.21
0	17537	1610.21	400.21
0	17538	1610.21	300.21
0	17539	1610.21	200.21
0	17674	1620.21	600.21
0	17675	1620.21	500.21
0	17676	1620.21	400.21
0	17677	1620.21	300.21
0	17678	1620.21	200.21
0	17813	1630.21	600.21
0	17814	1630.21	500.21
0	17815	1630.21	400.21
0	17816	1630.21	300.21
0	17817	1630.21	200.21
0	17952	1640.21	600.21
0	17953	1640.21	500.21
0	17954	1640.21	400.21
0	17955	1640.21	300.21
0	17956	1640.21	200.21
0	18091	1650.21	600.21
0	18092	1650.21	500.21
0	18093	1650.21	400.21
0	18094	1650.21	300.21
0	18095	1650.21	200.21
0	18230	1660.21	600.21
0	18231	1660.21	500.21
0	18232	1660.21	400.21
0	18233	1660.21	300.21
0	18234	1660.21	200.21
0	18369	1670.21	600.21
0	18370	1670.21	500.21
0	18371	1670.21	400.21
0	18372	1670.21	300.21
0	18373	1670.21	200.21
0	18508	1680.21	600.21
0	18509	1680.21	500.21
0	18510	1680.21	400.21
0	18511	1680.21	300.21
0	18512	1680.21	200.21
0	18647	1690.21	600.21
0	18648	1690.21	500.21
0	18649	1690.21	400.21
0	18650	1690.21	300.21
0	18651	1690.21	200.21
0	18786	1700.21	600.21
0	18787	1700.21	500.21
0	18788	1700.21	400.21
0	18789	1700.21	300.21
0	18790	1700.21	200.21
0	18925	1710.21	600.21
0	18926	1710.21	500.21
0	18927	1710.21	400.21
0	18928	1710.21	300.21
0	18929	1710.21	200.21
0	19064	1720.21	600.21
0	19065	1720.21	500.21
0	19066	1720.21	400.21
0	19067	1720.21	300.21
0	19068	1720.21	200.21
0	19203	1730.21	600.21
0	19204	1730.21	500.21
0	19205	1730.21	400.21
0	19206	1730.21	300.21
0	19207	1730.21	200.21
0	19342	1740.21	600.21
0	19343	1740.21	500.21
0	19344	1740.21	400.21
0	19345	1740.21	300.21
0	19346	1740.21	200.21
0	19481	1750.21	600.21
0	19482	1750.21	500.21
0	19483	1750.21	400.21
0	19484	1750.21	300.21
0	19485	1750.21	200.21
0	19620	1760.21	600.21
0	19621	1760.21	500.21
0	19622	1760.21	400.21
0	19623	1760.21	300.21
0	19624	1760.21	200.21
0	19759	1770.21	600.21
0	19760	1770.21	500.21
0	19761	1770.21	400.21
0	19762	1770.21	300.21
0	19763	1770.21	200.21
0	19898	1780.21	600.21
0	19899	1780.21	500.21
0	19900	1780.21	400.21
0	19901	1780.21	300.21
0	19902	1780.21	200.21
0	20037	1790.21	600.21
0	20038	1790.21	500.21
0	20039	1790.21	400.21
0	20040	1790.21	300.21
0	20041	1790.21	200.21
0	20176	1800.21	600.21
0	20177	1800.21	500.21
0	20178	1800.21	400.21
0	20179	1800.21	300.21
0	20180	1800.21	200.21
0	20315	1810.21	600.21
0	20316	1810.21	500.21
0	20317	1810.21	400.21
0	20318	1810.21	300.21
0	20319	1810.21	200.21
0	20454	1820.21	600.21
0	20455	1820.21	500.21
0	20456	1820.21	400.21
0	20457	1820.21	300.21
0	20458	1820.21	200.21
0	20593	1830.21	600.21
0	20594	1830.21	500.21
0	20595	1830.21	400.21
0	20596	1830.21	300.21
0	20597	1830.21	200.21
0	20732	1840.21	600.21
0	20733	1840.21	500.21
0	20734	1840.21	400.21
0	20735	1840.21	300.21
0	20736	1840.21	200.21
0	20871	1850.21	600.21
0	20872	1850.21	500.21
0	20873	1850.21	400.21
0	20874	1850.21	300.21
0	20875	1850.21	200.21
0	21010	1860.21	600.21
0	21011	1860.21	500.21
0	21012	1860.21	400.21
0	21013	1860.21	300.21
0	21014	1860.21	200.21
0	21149	1870.21	600.21
0	21150	1870.21	500.21
0	21151	1870.21	400.21
0	21152	1870.21	300.21
0	21153	1870.21	200.21
0	21288	1880.21	600.21
0	21289	1880.21	500.21
0	21290	1880.21	400.21
0	21291	1880.21	300.21
0	21292	1880.21	200.21
0	21427	1890.21	600.21
0	21428	1890.21	500.21
0	21429	1890.21	400.21
0	21430	1890.21	300.21
0	21431	1890.21	200.21
0	21566	1900.21	600.21
0	21567	1900.21	500.21
0	21568	1900.21	400.21
0	21569	1900.21	300.21
0	21570	1900.21	200.21
0	21705	1910.21	600.21
0	21706	1910.21	500.21
0	21707	1910.21	400.21
0	21708	1910.21	300.21
0	21709	1910.21	200.21
0	21844	1920.21	600.21
0	21845	1920.21	500.21
0	21846	1920.21	400.21
0	21847	1920.21	300.21
0	21848	1920.21	200.21
0	21983	1930.21	600.21
0	21984	1930.21	500.21
0	21985	1930.21	400.21
0	21986	1930.21	300.21
0	21987	1930.21	200.21
0	22122	1940.21	600.21
0	22123	1940.21	500.21
0	22124	1940.21	400.21
0	22125	1940.21	300.21
0	22126	1940.21	200.21
0	22261	1950.21	600.21
0	22262	1950.21	500.21
0	22263	1950.21	400.21
0	22264	1950.21	300.21
0	22265	1950.21	200.21
0	22400	1960.21	600.21
0	22401	1960.21	500.21
0	22402	1960.21	400.21
0	22403	1960.21	300.21
0	22404	1960.21	200.21
0	22539	1970.21	600.21
0	22540	1970.21	500.21
0	22541	1970.21	400.21
0	22542	1970.21	300.21
0	22543	1970.21	200.21
0	22678	1980.21	600.21
0	22679	1980.21	500.21
0	22680	1980.21	400.21
0	22681	1980.21	300.21
0	22682	1980.21	200.21
0	22817	1990.21	600.21
0	22818	1990.21	500.21
0	22819	1990.21	400.21
0	22820	1990.21	300.21
0	22821	1990.21	200.21
0	22956	2000.21	600.21
0	22957	2000.21	500.21
0	22958	2000.21	400.21
0	22959	2000.21	300.21
0	22960	2000.21	200.21
0	23095	2010.21	600.21
0	23096	2010.21	500.21
0	23097	2010.21	400.21
0	23098	2010.21	300.21
0	23099	2010.21	200.21
0	23234	2020.21	600.21
0	23235	2020.21	500.21
0	23236	2020.21	400.21
0	23237	2020.21	300.21
0	23238	2020.21	200.21
0	23373	2030.21	600.21
0	23374	2030.21	500.21
0	23375	2030.21	400.21
0	23376	2030.21	300.21
0	23377	2030.21	200.21
0	23512	2040.21	600.21
0	23513	2040.21	500.21
0	23514	2040.21	400.21
0	23515	2040.21	300.21
0	23516	2040.21	200.21
0	23651	2050.21	600.21
0	23652	2050.21	500.21
0	23653	2050.21	400.21
0	23654	2050.21	300.21
0	23655	2050.21	200.21
0	23790	2060.21	600.21
0	23791	2060.21	500.21
0	23792	2060.21	400.21
0	23793	2060.21	300.21
0	23794	2060.21	200.21
0	23929	2070.21	600.21
0	23930	2070.21	500.21
0	23931	2070.21	400.21
0	23932	2070.21	300.21
0	23933	2070.21	200.21
0	24068	2080.21	600.21
0	24069	2080.21	500.21
0	24070	2080.21	400.21
0	24071	2080.21	300.21
0	24072	2080.21	200.21
0	24207	2090.21	600.21
0	24208	2090.21	500.21
0	24209	2090.21	400.21
0	24210	2090.21	300.21
0	24211	2090.21	200.21
0	24346	2100.21	600.21
0	24347	2100.21	500.21
0	24348	2100.21	400.21
0	24349	2100.21	300.21
0	24350	2100.21	200.21
0	24485	2110.21	600.21
0	24486	2110.21	500.21
0	24487	2110.21	400.21
0	24488	2110.21	300.21
0	24489	2110.21	200.21
0	24624	2120.21	600.21
0	24625	2120.21	500.21
0	24626	2120.21	400.21
0	24627	2120.21	300.21
0	24628	2120.21	200.21
0	24763	2130.21	600.21
0	24764	2130.21	500.21
0	24765	2130.21	400.21
0	24766	2130.21	300.21
0	24767	2130.21	200.21
0	24902	2140.21	600.21
0	24903	2140.21	500.21
0	24904	2140.21	400.21
0	24905	2140.21	300.21
0	24906	2140.21	200.21
0	25041	2150.21	600.21
0	25042	2150.21	500.21
0	25043	2150.21	400.21
0	25044	2150.21	300.21
0	25045	2150.21	200.21
0	25180	2160.21	600.21
0	25181	2160.21	500.21
0	25182	2160.21	400.21
0	25183	2160.21	300.21
0	25184	2160.21	200.21
0	25319	2170.21	600.21
0	25320	2170.21	500.21
0	25321	2170.21	400.21
0	25322	2170.21	300.21
0	25323	2170.21	200.21
0	25458	2180.21	600.21
0	25459	2180.21	500.21
0	25460	2180.21	400.21
0	25461	2180.21	300.21
0	25462	2180.21	200.21
0	25597	2190.21	600.21
0	25598	2190.21	500.21
0	25599	2190.21	400.21
0	25600	2190.21	300.21
0	25601	2190.21	200.21
0	25736	2200.21	600.21
0	25737	2200.21	500.21
0	25738	2200.21	400.21
0	25739	2200.21	300.21
0	25740	2200.21	200.21
0	25875	2210.21	600.21
0	25876	2210.21	500.21
0	25877	2210.21	400.21
0	25878	2210.21	300.21
0	25879	2210.21	200.21
0	26014	2220.21	600.21
0	26015	2220.21	500.21
0	26016	2220.21	400.21
0	26017	2220.21	300.21
0	26018	2220.21	200.21
0	26153	2230.21	600.21
0	26154	2230.21	500.21
0	26155	2230.21	400.21
0	26156	2230.21	300.21
0	26157	2230.21	200.21
0	26292	2240.21	600.21
0	26293	2240.21	500.21
0	26294	2240.21	400.21
0	26295	2240.21	300.21
0	26296	2240.21	200.21
0	26431	2250.21	600.21
0	26432	2250.21	500.21
0	26433	2250.21	400.21
0	26434	2250.21	300.21
0	26435	2250.21	200.21
0	26570	2260.21	600.21
0	26571	2260.21	500.21
0	26572	2260.21	400.21
0	26573	2260.21	300.21
0	26574	2260.21	200.21
0	26709	2270.21	600.21
0	26710	2270.21	500.21
0	26711	2270.21	400.21
0	26712	2270.21	300.21
0	26713	2270.21	200.21
0	26848	2280.21	600.21
0	26849	2280.21	500.21
0	26850	2280.21	400.21
0	26851	2280.21	300.21
0	26852	2280.21	200.21
0	26987	2290.21	600.21
0	26988	2290.21	500.21
0	26989	2290.21	400.21
0	26990	2290.21	300.21
0	26991	2290.21	200.21
0	27126	2300.21	600.21
0	27127	2300.21	500.21
0	27128	2300.21	400.21
0	27129	2300.21	300.21
0	27130	2300.21	200.21
0	27265	2310.21	600.21
0	27266	2310.21	500.21
0	27267	2310.21	400.21
0	27268	2310.21	300.21
0	27269	2310.21	200.21
0	27404	2320.21	600.21
0	27405	2320.21	500.21
0	27406	2320.21	400.21
0	27407	2320.21	300.21
0	27408	2320.21	200.21
0	27543	2330.21	600.21
0	27544	2330.21	500.21
0	27545	2330.21	400.21
0	27546	2330.21	300.21
0	27547	2330.21	200.21
0	27682	2340.21	600.21
0	27683	2340.21	500.21
0	27684	2340.21	400.21
0	27685	2340.21	300.21
0	27686	2340.21	200.21
0	27821	2350.21	600.21
0	27822	2350.21	500.21
0	27823	2350.21	400.21
0	27824	2350.21	300.21
0	27825	2350.21	200.21
0	27960	2360.21	600.21
0	27961	2360.21	500.21
0	27962	2360.21	400.21
0	27963	2360.21	300.21
0	27964	2360.21	200.21
0	28099	2370.21	600.21
0	28100	2370.21	500.21
0	28101	2370.21	400.21
0	28102	2370.21	300.21
0	28103	2370.21	200.21
0	28238	2380.21	600.21
0	28239	2380.21	500.21
0	28240	2380.21	400.21
0	28241	2380.21	300.21
0	28242	2380.21	200.21
0	28377	2390.21	600.21
0	28378	2390.21	500.21
0	28379	2390.21	400.21
0	28380	2390.21	300.21
0	28381	2390.21	200.21
0	28516	2400.21	600.21
0	28517	2400.21	500.21
0	28518	2400.21	400.21
0	28519	2400.21	300.21
0	28520	2400.21	200.21
0	28655	2410.21	600.21
0	28656	2410.21	500.21
0	28657	2410.21	400.21
0	28658	2410.21	300.21
0	28659	2410.21	200.21
0	28794	2420.21	600.21
0	28795	2420.21	500.21
0	28796	2420.21	400.21
0	28797	2420.21	300.21
0	28798	2420.21	200.21
0	28933	2430.21	600.21
0	28934	2430.21	500.21
0	28935	2430.21	400.21
0	28936	2430.21	300.21
0	28937	2430.21	200.21
0	29072	2440.21	600.21
0	29073	2440.21	500.21
0	29074	2440.21	400.21
0	29075	2440.21	300.21
0	29076	2440.21	200.21
0	29211	2450.21	600.21
0	29212	2450.21	500.21
0	29213	2450.21	400.21
0	29214	2450.21	300.21
0	29215	2450.21	200.21
0	29350	2460.21	600.21
0	29351	2460.21	500.21
0	29352	2460.21	400.21
0	29353	2460.21	300.21
0	29354	2460.21	200.21
0	29489	2470.21	600.21
0	29490	2470.21	500.21
0	29491	2470.21	400.21
0	29492	2470.21	300.21
0	29493	2470.21	200.21
0	29628	2480.21	600.21
0	29629	2480.21	500.21
0	29630	2480.21	400.21
0	29631	2480.21	300.21
0	29632	2480.21	200.21
0	29767	2490.21	600.21
0	29768	2490.21	500.21
0	29769	2490.21	400.21
0	29770	2490.21	300.21
0	29771	2490.21	200.21
0	29906	2500.21	600.21
0	29907	2500.21	500.21
0	29908	2500.21	400.21
0	29909	2500.21	300.21
0	29910	2500.21	200.21
0	30045	2510.21	600.21
0	30046	2510.21	500.21
0	30047	2510.21	400.21
0	30048	2510.21	300.21
0	30049	2510.21	200.21
0	30184	2520.21	600.21
0	30185	2520.21	500.21
0	30186	2520.21	400.21
0	30187	2520.21	300.21
0	30188	2520.21	200.21
0	30323	2530.21	600.21
0	30324	2530.21	500.21
0	30325	2530.21	400.21
0	30326	2530.21	300.21
0	30327	2530.21	200.21
0	30462	2540.21	600.21
0	30463	2540.21	500.21
0	30464	2540.21	400.21
0	30465	2540.21	300.21
0	30466	2540.21	200.21
0	30601	2550.21	600.21
0	30602	2550.21	500.21
0	30603	2550.21	400.21
0	30604	2550.21	300.21
0	30605	2550.21	200.21
0	30740	2560.21	600.21
0	30741	2560.21	500.21
0	30742	2560.21	400.21
0	30743	2560.21	300.21
0	30744	2560.21	200.21
0	30879	2570.21	600.21
0	30880	2570.21	500.21
0	30881	2570.21	400.21
0	30882	2570.21	300.21
0	30883	2570.21	200.21
0	31018	2580.21	600.21
0	31019	2580.21	500.21
0	31020	2580.21	400.21
0	31021	2580.21	300.21
0	31022	2580.21	200.21
0	31157	2590.21	600.21
0	31158	2590.21	500.21
0	31159	2590.21	400.21
0	31160	2590.21	300.21
0	31161	2590.21	200.21
0	31296	2600.21	600.21
0	31297	2600.21	500.21
0	31298	2600.21	400.21
0	31299	2600.21	300.21
0	31300	2600.21	200.21
0	31435	2610.21	600.21
0	31436	2610.21	500.21
0	31437	2610.21	400.21
0	31438	2610.21	300.21
0	31439	2610.21	200.21
0	31574	2620.21	600.21
0	31575	2620.21	500.21
0	31576	2620.21	400.21
0	31577	2620.21	300.21
0	31578	2620.21	200.21
0	31713	2630.21	600.21
0	31714	2630.21	500.21
0	31715	2630.21	400.21
0	31716	2630.21	300.21
0	31717	2630.21	200.21
0	31852	2640.21	600.21
0	31853	2640.21	500.21
0	31854	2640.21	400.21
0	31855	2640.21	300.21
0	31856	2640.21	200.21
0	31991	2650.21	600.21
0	31992	2650.21	500.21
0	31993	2650.21	400.21
0	31994	2650.21	300.21
0	31995	2650.21	200.21
0	32130	2660.21	600.21
0	32131	2660.21	500.21
0	32132	2660.21	400.21
0	32133	2660.21	300.21
0	32134	2660.21	200.21
0	32269	2670.21	600.21
0	32270	2670.21	500.21
0	32271	2670.21	400.21
0	32272	2670.21	300.21
0	32273	2670.21	200.21
0	32408	2680.21	600.21
0	32409	2680.21	500.21
0	32410	2680.21	400.21
0	32411	2680.21	300.21
0	32412	2680.21	200.21
0	32547	2690.21	600.21
0	32548	2690.21	500.21
0	32549	2690.21	400.21
0	32550	2690.21	300.21
0	32551	2690.21	200.21
0	32686	2700.21	600.21
0	32687	2700.21	500.21
0	32688	2700.21	400.21
0	32689	2700.21	300.21
0	32690	2700.21	200.21
0	32825	2710.21	600.21
0	32826	2710.21	500.21
0	32827	2710.21	400.21
0	32828	2710.21	300.21
0	32829	2710.21	200.21
0	32964	2720.21	600.21
0	32965	2720.21	500.21
0	32966	2720.21	400.21
0	32967	2720.21	300.21
0	32968	2720.21	200.21
0	33103	2730.21	600.21
0	33104	2730.21	500.21
0	33105	2730.21	400.21
0	33106	2730.21	300.21
0	33107	2730.21	200.21
0	33242	2740.21	600.21
0	33243	2740.21	500.21
0	33244	2740.21	400.21
0	33245	2740.21	300.21
0	33246	2740.21	200.21
0	33381	2750.21	600.21
0	33382	2750.21	500.21
0	33383	2750.21	400.21
0	33384	2750.21	300.21
0	33385	2750.21	200.21
0	33520	2760.21	600.21
0	33521	2760.21	500.21
0	33522	2760.21	400.21
0	33523	2760.21	300.21
0	33524	2760.21	200.21
0	33659	2770.21	600.21
0	33660	2770.21	500.21
0	33661	2770.21	400.21
0	33662	2770.21	300.21
0	33663	2770.21	200.21
0	33798	2780.21	600.21
0	33799	2780.21	500.21
0	33800	2780.21	400.21
0	33801	2780.21	300.21
0	33802	2780.21	200.21
0	33937	2790.21	600.21
0	33938	2790.21	500.21
0	33939	2790.21	400.21
0	33940	2790.21	300.21
0	33941	2790.21	200.21
0	34076	2800.21	600.21
0	34077	2800.21	500.21
0	34078	2800.21	400.21
0	34079	2800.21	300.21
0	34080	2800.21	200.21
0	34215	2810.21	600.21
0	34216	2810.21	500.21
0	34217	2810.21	400.21
0	34218	2810.21	300.21
0	34219	2810.21	200.21
0	34354	2820.21	600.21
0	34355	2820.21	500.21
0	34356	2820.21	400.21
0	34357	2820.21	300.21
0	34358	2820.21	200.21
0	34493	2830.21	600.21
0	34494	2830.21	500.21
0	34495	2830.21	400.21
0	34496	2830.21	300.21
0	34497	2830.21	200.21
0	34632	2840.21	600.21
0	34633	2840.21	500.21
0	34634	2840.21	400.21
0	34635	2840.21	300.21
0	34636	2840.21	200.21
0	34771	2850.21	600.21
0	34772	2850.21	500.21
0	34773	2850.21	400.21
0	34774	2850.21	300.21
0	34775	2850.21	200.21
0	34910	2860.21	600.21
0	34911	2860.21	500.21
0	34912	2860.21	400.21
0	34913	2860.21	300.21
0	34914	2860.21	200.21
0	35049	2870.21	600.21
0	35050	2870.21	500.21
0	35051	2870.21	400.21
0	35052	2870.21	300.21
0	35053	2870.21	200.21
0	35188	2880.21	600.21
0	35189	2880.21	500.21
0	35190	2880.21	400.21
0	35191	2880.21	300.21
0	35192	2880.21	200.21
0	35327	2890.21	600.21
0	35328	2890.21	500.21
0	35329	2890.21	400.21
0	35330	2890.21	300.21
0	35331	2890.21	200.21
0	35466	2900.21	600.21
0	35467	2900.21	500.21
0	35468	2900.21	400.21
0	35469	2900.21	300.21
0	35470	2900.21	200.21
0	35605	2910.21	600.21
0	35606	2910.21	500.21
0	35607	2910.21	400.21
0	35608	2910.21	300.21
0	35609	2910.21	200.21
0	35744	2920.21	600.21
0	35745	2920.21	500.21
0	35746	2920.21	400.21
0	35747	2920.21	300.21
0	35748	2920.21	200.21
0	35883	2930.21	600.21
0	35884	2930.21	500.21
0	35885	2930.21	400.21
0	35886	2930.21	300.21
0	35887	2930.21	200.21
0	36022	2940.21	600.21
0	36023	2940.21	500.21
0	36024	2940.21	400.21
0	36025	2940.21	300.21
0	36026	2940.21	200.21
0	36161	2950.21	600.21
0	36162	2950.21	500.21
0	36163	2950.21	400.21
0	36164	2950.21	300.21
0	36165	2950.21	200.21
0	36300	2960.21	600.21
0	36301	2960.21	500.21
0	36302	2960.21	400.21
0	36303	2960.21	300.21
0	36304	2960.21	200.21
0	36439	2970.21	600.21
0	36440	2970.21	500.21
0	36441	2970.21	400.21
0	36442	2970.21	300.21
0	36443	2970.21	200.21
0	36578	2980.21	600.21
0	36579	2980.21	500.21
0	36580	2980.21	400.21
0	36581	2980.21	300.21
0	36582	2980.21	200.21
0	36717	2990.21	600.21
0	36718	2990.21	500.21
0	36719	2990.21	400.21
0	36720	2990.21	300.21
0	36721	2990.21	200.21
0	36856	3000.21	600.21
0	36857	3000.21	500.21
0	36858	3000.21	400.21
0	36859	3000.21	300.21
0	36860	3000.21	200.21
0	36995	3010.21	600.21
0	36996	3010.21	500.21
0	36997	3010.21	400.21
0	36998	3010.21	300.21
0	36999	3010.21	200.21
0	37134	3020.21	600.21
0	37135	3020.21	500.21
0	37136	3020.21	400.21
0	37137	3020.21	300.21
0	37138	3020.21	200.21
0	37273	3030.21	600.21
0	37274	3030.21	500.21
0	37275	3030.21	400.21
0	37276	3030.21	300.21
0	37277	3030.21	200.21
0	37412	3040.21	600.21
0	37413	3040.21	500.21
0	37414	3040.21	400.21
0	37415	3040.21	300.21
0	37416	3040.21	200.21
0	37551	3050.21	600.21
0	37552	3050.21	500.21
0	37553	3050.21	400.21
0	37554	3050.21	300.21
0	37555	3050.21	200.21
0	37690	3060.21	600.21
0	37691	3060.21	500.21
0	37692	3060.21	400.21
0	37693	3060.21	300.21
0	37694	3060.21	200.21
0	37829	3070.21	600.21
0	37830	3070.21	500.21
0	37831	3070.21	400.21
0	37832	3070.21	300.21
0	37833	3070.21	200.21
0	37968	3080.21	600.21
0	37969	3080.21	500.21
0	37970	3080.21	400.21
0	37971	3080.21	300.21
0	37972	3080.21	200.21
0	38107	3090.21	600.21
0	38108	3090.21	500.21
0	38109	3090.21	400.21
0	38110	3090.21	300.21
0	38111	3090.21	200.21
0	38246	3100.21	600.21
0	38247	3100.21	500.21
0	38248	3100.21	400.21
0	38249	3100.21	300.21
0	38250	3100.21	200.21
0	38385	3110.21	600.21
0	38386	3110.21	500.21
0	38387	3110.21	400.21
0	38388	3110.21	300.21
0	38389	3110.21	200.21
0	38524	3120.21	600.21
0	38525	3120.21	500.21
0	38526	3120.21	400.21
0	38527	3120.21	300.21
0	38528	3120.21	200.21
0	38663	3130.21	600.21
0	38664	3130.21	500.21
0	38665	3130.21	400.21
0	38666	3130.21	300.21
0	38667	3130.21	200.21
0	38802	3140.21	600.21
0	38803	3140.21	500.21
0	38804	3140.21	400.21
0	38805	3140.21	300.21
0	38806	3140.21	200.21
0	38941	3150.21	600.21
0	38942	3150.21	500.21
0	38943	3150.21	400.21
0	38944	3150.21	300.21
0	38945	3150.21	200.21
0	39080	3160.21	600.21
0	39081	3160.21	500.21
0	39082	3160.21	400.21
0	39083	3160.21	300.21
0	39084	3160.21	200.21
0	39219	3170.21	600.21
0	39220	3170.21	500.21
0	39221	3170.21	400.21
0	39222	3170.21	300.21
0	39223	3170.21	200.21
0	39358	3180.21	600.21
0	39359	3180.21	500.21
0	39360	3180.21	400.21
0	39361	3180.21	300.21
0	39362	3180.21	200.21
0	39497	3190.21	600.21
0	39498	3190.21	500.21
0	39499	3190.21	400.21
0	39500	3190.21	300.21
0	39501	3190.21	200.21
0	39636	3200.21	600.21
0	39637	3200.21	500.21
0	39638	3200.21	400.21
0	39639	3200.21	300.21
0	39640	3200.21	200.21
0	39775	3210.21	600.21
0	39776	3210.21	500.21
0	39777	3210.21	400.21
0	39778	3210.21	300.21
0	39779	3210.21	200.21
0	39915	3220.21	600.21
0	39916	3220.21	500.21
0	39917	3220.21	400.21
0	39918	3220.21	300.21
0	39919	3220.21	200.21
0	40053	3230.21	600.21
0	40054	3230.21	500.21
0	40055	3230.21	400.21
0	40056	3230.21	300.21
0	40057	3230.21	200.21
0	40191	3240.21	600.21
0	40192	3240.21	500.21
0	40193	3240.21	400.21
0	40194	3240.21	300.21
0	40195	3240.21	200.21
0	40329	3250.21	600.21
0	40330	3250.21	500.21
0	40331	3250.21	400.21
0	40332	3250.21	300.21
0	40333	3250.21	200.21
0	40467	3260.21	600.21
0	40468	3260.21	500.21
0	40469	3260.21	400.21
0	40470	3260.21	300.21
0	40471	3260.21	200.21
0	40605	3270.21	600.21
0	40606	3270.21	500.21
0	40607	3270.21	400.21
0	40608	3270.21	300.21
0	40609	3270.21	200.21
0	40743	3280.21	600.21
0	40744	3280.21	500.21
0	40745	3280.21	400.21
0	40746	3280.21	300.21
0	40747	3280.21	200.21
0	40881	3290.21	600.21
0	40882	3290.21	500.21
0	40883	3290.21	400.21
0	40884	3290.21	300.21
0	40885	3290.21	200.21
0	41019	3300.21	600.21
0	41020	3300.21	500.21
0	41021	3300.21	400.21
0	41022	3300.21	300.21
0	41023	3300.21	200.21
0	41157	3310.21	600.21
0	41158	3310.21	500.21
0	41159	3310.21	400.21
0	41160	3310.21	300.21
0	41161	3310.21	200.21
0	41295	3320.21	600.21
0	41296	3320.21	500.21
0	41297	3320.21	400.21
0	41298	3320.21	300.21
0	41299	3320.21	200.21
0	41433	3330.21	600.21
0	41434	3330.21	500.21
0	41435	3330.21	400.21
0	41436	3330.21	300.21
0	41437	3330.21	200.21
0	41571	3340.21	600.21
0	41572	3340.21	500.21
0	41573	3340.21	400.21
0	41574	3340.21	300.21
0	41575	3340.21	200.21
0	41709	3350.21	600.21
0	41710	3350.21	500.21
0	41711	3350.21	400.21
0	41712	3350.21	300.21
0	41713	3350.21	200.21
0	41847	3360.21	600.21
0	41848	3360.21	500.21
0	41849	3360.21	400.21
0	41850	3360.21	300.21
0	41851	3360.21	200.21
0	41985	3370.21	600.21
0	41986	3370.21	500.21
0	41987	3370.21	400.21
0	41988	3370.21	300.21
0	41989	3370.21	200.21
0	42123	3380.21	600.21
0	42124	3380.21	500.21
0	42125	3380.21	400.21
0	42126	3380.21	300.21
0	42127	3380.21	200.21
0	42261	3390.21	600.21
0	42262	3390.21	500.21
0	42263	3390.21	400.21
0	42264	3390.21	300.21
0	42265	3390.21	200.21
0	42399	3400.21	600.21
0	42400	3400.21	500.21
0	42401	3400.21	400.21
0	42402	3400.21	300.21
0	42403	3400.21	200.21
0	42537	3410.21	600.21
0	42538	3410.21	500.21
0	42539	3410.21	400.21
0	42540	3410.21	300.21
0	42541	3410.21	200.21
0	42676	3420.21	600.21
0	42677	3420.21	500.21
0	42678	3420.21	400.21
0	42679	3420.21	300.21
0	42680	3420.21	200.21
0	42814	3430.21	600.21
0	42815	3430.21	500.21
0	42816	3430.21	400.21
0	42817	3430.21	300.21
0	42818	3430.21	200.21
0	42952	3440.21	600.21
0	42953	3440.21	500.21
0	42954	3440.21	400.21
0	42955	3440.21	300.21
0	42956	3440.21	200.21
0	43090	3450.21	600.21
0	43091	3450.21	500.21
0	43092	3450.21	400.21
0	43093	3450.21	300.21
0	43094	3450.21	200.21
0	43291	3460.35	600.35
0	43292	3460.35	500.35
0	43293	3460.35	400.35
0	43294	3460.35	300.35
0	43295	3460.35	200.35
0	43531	3470.35	600.35
0	43532	3470.35	500.35
0	43533	3470.35	400.35
0	43534	3470.35	300.35
0	43535	3470.35	200.35
0	43771	3480.35	600.35
0	43772	3480.35	500.35
0	43773	3480.35	400.35
0	43774	3480.35	300.35
0	43775	3480.35	200.35
0	44011	3490.35	600.35
0	44012	3490.35	500.35
0	44013	3490.35	400.35
0	44014	3490.35	300.35
0	44015	3490.35	200.35
0	44251	3500.35	600.35
0	44252	3500.35	500.35
0	44253	3500.35	400.35
0	44254	3500.35	300.35
0	44255	3500.35	200.35
0	44491	3510.35	600.35
0	44492	3510.35	500.35
0	44493	3510.35	400.35
0	44494	3510.35	300.35
0	44495	3510.35	200.35
0	44731	3520.35	600.35
0	44732	3520.35	500.35
0	44733	3520.35	400.35
0	44734	3520.35	300.35
0	44735	3520.35	200.35
0	44971	3530.35	600.35
0	44972	3530.35	500.35
0	44973	3530.35	400.35
0	44974	3530.35	300.35
0	44975	3530.35	200.35
0	45214	3540.35	600.35
0	45215	3540.35	500.35
0	45216	3540.35	400.35
0	45217	3540.35	300.35
0	45218	3540.35	200.35
0	45455	3550.35	600.35
0	45456	3550.35	500.35
0	45457	3550.35	400.35
0	45458	3550.35	300.35
0	45459	3550.35	200.35
0	45701	3560.35	600.35
0	45702	3560.35	500.35
0	45703	3560.35	400.35
0	45704	3560.35	300.35
0	45705	3560.35	200.35
0	45947	3570.35	600.35
0	45948	3570.35	500.35
0	45949	3570.35	400.35
0	45950	3570.35	300.35
0	45951	3570.35	200.35
0	46193	3580.35	600.35
0	46194	3580.35	500.35
0	46195	3580.35	400.35
0	46196	3580.35	300.35
0	46197	3580.35	200.35
0	46439	3590.35	600.35
0	46440	3590.35	500.35
0	46441	3590.35	400.35
0	46442	3590.35	300.35
0	46443	3590.35	200.35
0	46685	3600.35	600.35
0	46686	3600.35	500.35
0	46687	3600.35	400.35
0	46688	3600.35	300.35
0	46689	3600.35	200.35
0	46931	3610.35	600.35
0	46932	3610.35	500.35
0	46933	3610.35	400.35
0	46934	3610.35	300.35
0	46935	3610.35	200.35
0	47103	3620.16	600.16
0	47104	3620.16	500.16
0	47105	3620.16	400.16
0	47106	3620.16	300.16
0	47107	3620.16	200.16
0	47232	3620.35	600.35
0	47233	3620.35	500.35
0	47234	3620.35	400.35
0	47235	3620.35	300.35
0	47368	3630.16	600.16
0	47369	3630.16	500.16
0	47370	3630.16	400.16
0	47371	3630.16	300.16
0	47372	3630.16	200.16
0	47497	3630.35	600.35
0	47498	3630.35	500.35
0	47499	3630.35	400.35
0	47500	3630.35	300.35
0	47633	3640.16	600.16
0	47634	3640.16	500.16
0	47635	3640.16	400.16
0	47636	3640.16	300.16
0	47637	3640.16	200.16
0	47762	3640.35	600.35
0	47763	3640.35	500.35
0	47764	3640.35	400.35
0	47765	3640.35	300.35
0	47897	3650.16	600.16
0	47898	3650.16	500.16
0	47899	3650.16	400.16
0	47900	3650.16	300.16
0	47901	3650.16	200.16
0	48026	3650.35	600.35
0	48027	3650.35	500.35
0	48028	3650.35	400.35
0	48029	3650.35	300.35
0	48161	3660.16	600.16
0	48162	3660.16	500.16
0	48163	3660.16	400.16
0	48164	3660.16	300.16
0	48165	3660.16	200.16
0	48290	3660.35	600.35
0	48291	3660.35	500.35
0	48292	3660.35	400.35
0	48293	3660.35	300.35
0	48425	3670.16	600.16
0	48426	3670.16	500.16
0	48427	3670.16	400.16
0	48428	3670.16	300.16
0	48429	3670.16	200.16
0	48554	3670.35	600.35
0	48555	3670.35	500.35
0	48556	3670.35	400.35
0	48557	3670.35	300.35
0	48689	3680.16	600.16
0	48690	3680.16	500.16
0	48691	3680.16	400.16
0	48692	3680.16	300.16
0	48693	3680.16	200.16
0	48818	3680.35	600.35
0	48819	3680.35	500.35
0	48820	3680.35	400.35
0	48821	3680.35	300.35
0	48953	3690.16	600.16
0	48954	3690.16	500.16
0	48955	3690.16	400.16
0	48956	3690.16	300.16
0	48957	3690.16	200.16
0	49082	3690.35	600.35
0	49083	3690.35	500.35
0	49084	3690.35	400.35
0	49085	3690.35	300.35
0	49217	3700.16	600.16
0	49218	3700.16	500.16
0	49219	3700.16	400.16
0	49220	3700.16	300.16
0	49221	3700.16	200.16
0	49346	3700.35	600.35
0	49347	3700.35	500.35
0	49348	3700.35	400.35
0	49349	3700.35	300.35
0	49481	3710.16	600.16
0	49482	3710.16	500.16
0	49483	3710.16	400.16
0	49484	3710.16	300.16
0	49485	3710.16	200.16
0	49610	3710.35	600.35
0	49611	3710.35	500.35
0	49612	3710.35	400.35
0	49613	3710.35	300.35
0	49750	3720.16	600.16
0	49751	3720.16	500.16
0	49752	3720.16	400.16
0	49753	3720.16	300.16
0	49754	3720.16	200.16
0	49868	3720.35	600.35
0	49869	3720.35	500.35
0	49870	3720.35	400.35
0	49997	3730.16	600.16
0	49998	3730.16	500.16
0	49999	3730.16	400.16
0	50000	3730.16	300.16
0	50001	3730.16	200.16
0	50115	3730.35	600.35
0	50116	3730.35	500.35
0	50117	3730.35	400.35
0	50244	3740.16	600.16
0	50245	3740.16	500.16
0	50246	3740.16	400.16
0	50247	3740.16	300.16
0	50248	3740.16	200.16
0	50362	3740.35	600.35
0	50363	3740.35	500.35
0	50364	3740.35	400.35
0	50491	3750.16	600.16
0	50492	3750.16	500.16
0	50493	3750.16	400.16
0	50494	3750.16	300.16
0	50495	3750.16	200.16
0	50609	3750.35	600.35
0	50610	3750.35	500.35
0	50611	3750.35	400.35
0	50738	3760.16	600.16
0	50739	3760.16	500.16
0	50740	3760.16	400.16
0	50741	3760.16	300.16
0	50742	3760.16	200.16
0	50856	3760.35	600.35
0	50857	3760.35	500.35
0	50858	3760.35	400.35
0	50985	3770.16	600.16
0	50986	3770.16	500.16
0	50987	3770.16	400.16
0	50988	3770.16	300.16
0	50989	3770.16	200.16
0	51103	3770.35	600.35
0	51104	3770.35	500.35
0	51105	3770.35	400.35
0	51232	3780.16	600.16
0	51233	3780.16	500.16
0	51234	3780.16	400.16
0	51235	3780.16	300.16
0	51236	3780.16	200.16
0	51350	3780.35	600.35
0	51351	3780.35	500.35
0	51352	3780.35	400.35
0	51479	3790.16	600.16
0	51480	3790.16	500.16
0	51481	3790.16	400.16
0	51482	3790.16	300.16
0	51483	3790.16	200.16
0	51597	3790.35	600.35
0	51598	3790.35	500.35
0	51599	3790.35	400.35
0	51726	3800.16	600.16
0	51727	3800.16	500.16
0	51728	3800.16	400.16
0	51729	3800.16	300.16
0	51730	3800.16	200.16
0	51844	3800.35	600.35
0	51845	3800.35	500.35
0	51846	3800.35	400.35
0	51973	3810.16	600.16
0	51974	3810.16	500.16
0	51975	3810.16	400.16
0	51976	3810.16	300.16
0	51977	3810.16	200.16
0	52091	3810.35	600.35
0	52092	3810.35	500.35
0	52093	3810.35	400.35
0	52220	3820.16	600.16
0	52221	3820.16	500.16
0	52222	3820.16	400.16
0	52223	3820.16	300.16
0	52224	3820.16	200.16
0	52332	3820.35	600.35
0	52333	3820.35	500.35
0	52450	3830.16	600.16
0	52451	3830.16	500.16
0	52452	3830.16	400.16
0	52453	3830.16	300.16
0	52454	3830.16	200.16
0	52562	3830.35	600.35
0	52563	3830.35	500.35
0	52682	3840.16	600.16
0	52683	3840.16	500.16
0	52684	3840.16	400.16
0	52685	3840.16	300.16
0	52686	3840.16	200.16
0	52796	3840.35	600.35
0	52797	3840.35	500.35
0	52915	3850.16	600.16
0	52916	3850.16	500.16
0	52917	3850.16	400.16
0	52918	3850.16	300.16
0	52919	3850.16	200.16
0	53029	3850.35	600.35
0	53030	3850.35	500.35
0	53148	3860.16	600.16
0	53149	3860.16	500.16
0	53150	3860.16	400.16
0	53151	3860.16	300.16
0	53152	3860.16	200.16
0	53262	3860.35	600.35
0	53263	3860.35	500.35
0	53381	3870.16	600.16
0	53382	3870.16	500.16
0	53383	3870.16	400.16
0	53384	3870.16	300.16
0	53385	3870.16	200.16
0	53495	3870.35	600.35
0	53496	3870.35	500.35
0	53613	3880.16	600.16
0	53614	3880.16	500.16
0	53615	3880.16	400.16
0	53616	3880.16	300.16
0	53617	3880.16	200.16
0	53727	3880.35	600.35
0	53728	3880.35	500.35
0	53845	3890.16	600.16
0	53846	3890.16	500.16
0	53847	3890.16	400.16
0	53848	3890.16	300.16
0	53849	3890.16	200.16
0	53959	3890.35	600.35
0	53960	3890.35	500.35
0	54077	3900.16	600.16
0	54078	3900.16	500.16
0	54079	3900.16	400.16
0	54080	3900.16	300.16
0	54081	3900.16	200.16
0	54191	3900.35	600.35
0	54192	3900.35	500.35
0	54309	3910.16	600.16
0	54310	3910.16	500.16
0	54311	3910.16	400.16
0	54312	3910.16	300.16
0	54313	3910.16	200.16
0	54423	3910.35	600.35
0	54424	3910.35	500.35
0	54541	3920.16	600.16
0	54542	3920.16	500.16
0	54543	3920.16	400.16
0	54544	3920.16	300.16
0	54545	3920.16	200.16
0	54649	3920.35	600.35
0	54756	3930.16	600.16
0	54757	3930.16	500.16
0	54758	3930.16	400.16
0	54759	3930.16	300.16
0	54760	3930.16	200.16
0	54864	3930.35	600.35
0	54971	3940.16	600.16
0	54972	3940.16	500.16
0	54973	3940.16	400.16
0	54974	3940.16	300.16
0	54975	3940.16	200.16
0	55079	3940.35	600.35
0	55186	3950.16	600.16
0	55187	3950.16	500.16
0	55188	3950.16	400.16
0	55189	3950.16	300.16
0	55190	3950.16	200.16
0	55294	3950.35	600.35
0	55401	3960.16	600.16
0	55402	3960.16	500.16
0	55403	3960.16	400.16
0	55404	3960.16	300.16
0	55405	3960.16	200.16
0	55509	3960.35	600.35
0	55616	3970.16	600.16
0	55617	3970.16	500.16
0	55618	3970.16	400.16
0	55619	3970.16	300.16
0	55620	3970.16	200.16
0	55724	3970.35	600.35
0	55831	3980.16	600.16
0	55832	3980.16	500.16
0	55833	3980.16	400.16
0	55834	3980.16	300.16
0	55835	3980.16	200.16
0	55939	3980.35	600.35
0	56046	3990.16	600.16
0	56047	3990.16	500.16
0	56048	3990.16	400.16
0	56049	3990.16	300.16
0	56050	3990.16	200.16
0	56154	3990.35	600.35
0	56261	4000.16	600.16
0	56262	4000.16	500.16
0	56263	4000.16	400.16
0	56264	4000.16	300.16
0	56265	4000.16	200.16
0	56369	4000.35	600.35
0	56476	4010.16	600.16
0	56477	4010.16	500.16
0	56478	4010.16	400.16
0	56479	4010.16	300.16
0	56480	4010.16	200.16
0	56584	4010.35	600.35
0	56691	4020.16	600.16
0	56692	4020.16	500.16
0	56693	4020.16	400.16
0	56694	4020.16	300.16
0	56695	4020.16	200.16
0	56883	4030.16	600.16
0	56884	4030.16	500.16
0	56885	4030.16	400.16
0	56886	4030.16	300.16
0	56887	4030.16	200.16
0	57075	4040.16	600.16
0	57076	4040.16	500.16
0	57077	4040.16	400.16
0	57078	4040.16	300.16
0	57079	4040.16	200.16
0	57267	4050.16	600.16
0	57268	4050.16	500.16
0	57269	4050.16	400.16
0	57270	4050.16	300.16
0	57271	4050.16	200.16
0	57459	4060.16	600.16
0	57460	4060.16	500.16
0	57461	4060.16	400.16
0	57462	4060.16	300.16
0	57463	4060.16	200.16
0	57652	4070.16	600.16
0	57653	4070.16	500.16
0	57654	4070.16	400.16
0	57655	4070.16	300.16
0	57656	4070.16	200.16
0	57829	4080.16	600.16
0	57830	4080.16	500.16
0	57831	4080.16	400.16
0	57832	4080.16	300.16
0	57833	4080.16	200.16
0	58006	4090.16	600.16
0	58007	4090.16	500.16
0	58008	4090.16	400.16
0	58009	4090.16	300.16
0	58010	4090.16	200.16
0	58184	4100.16	600.16
0	58185	4100.16	500.16
0	58186	4100.16	400.16
0	58187	4100.16	300.16
0	58188	4100.16	200.16
0	58334	4110.16	600.16
0	58335	4110.16	500.16
0	58336	4110.16	400.16
0	58337	4110.16	300.16
0	58338	4110.16	200.16
0	58484	4120.16	600.16
0	58485	4120.16	500.16
0	58486	4120.16	400.16
0	58487	4120.16	300.16
0	58488	4120.16	200.16
0	58633	4130.16	600.16
0	58634	4130.16	500.16
0	58635	4130.16	400.16
0	58636	4130.16	300.16
0	58637	4130.16	200.16
0	58785	4140.16	600.16
0	58786	4140.16	500.16
0	58787	4140.16	400.16
0	58788	4140.16	300.16
0	58789	4140.16	200.16
0	58938	4150.16	600.16
0	58939	4150.16	500.16
0	58940	4150.16	400.16
0	58941	4150.16	300.16
0	58942	4150.16	200.16
0	59089	4160.16	600.16
0	59090	4160.16	500.16
0	59091	4160.16	400.16
0	59092	4160.16	300.16
0	59093	4160.16	200.16
0	59241	4170.16	600.16
0	59242	4170.16	500.16
0	59243	4170.16	400.16
0	59244	4170.16	300.16
0	59245	4170.16	200.16
0	59364	4180.16	600.16
0	59365	4180.16	500.16
0	59366	4180.16	400.16
0	59367	4180.16	300.16
0	59368	4180.16	200.16
0	59487	4190.16	600.16
0	59488	4190.16	500.16
0	59489	4190.16	400.16
0	59490	4190.16	300.16
0	59491	4190.16	200.16
0	59787	4200.16	600.16
0	59788	4200.16	500.16
0	59789	4200.16	400.16
0	59790	4200.16	300.16
0	59791	4200.16	200.16
0	59911	4210.16	600.16
0	59912	4210.16	500.16
0	59913	4210.16	400.16
0	59914	4210.16	300.16
0	59915	4210.16	200.16
0	60038	4220.16	600.16
0	60039	4220.16	500.16
0	60040	4220.16	400.16
0	60041	4220.16	300.16
0	60042	4220.16	200.16
0	60163	4230.16	600.16
0	60164	4230.16	500.16
0	60165	4230.16	400.16
0	60166	4230.16	300.16
0	60167	4230.16	200.16
0	60288	4240.16	600.16
0	60289	4240.16	500.16
0	60290	4240.16	400.16
0	60291	4240.16	300.16
0	60292	4240.16	200.16
0	60413	4250.16	600.16
0	60414	4250.16	500.16
0	60415	4250.16	400.16
0	60416	4250.16	300.16
0	60417	4250.16	200.16
0	60538	4260.16	600.16
0	60539	4260.16	500.16
0	60540	4260.16	400.16
0	60541	4260.16	300.16
0	60542	4260.16	200.16
0	60688	4270.16	700.16
0	60689	4270.16	600.16
0	60690	4270.16	500.16
0	60691	4270.16	400.16
0	60692	4270.16	300.16
0	60693	4270.16	600.16
0	60694	4270.16	500.16
0	60695	4270.16	400.16
0	60696	4270.16	300.16
0	60697	4270.16	200.16
0	60819	4280.16	700.16
0	60820	4280.16	600.16
0	60821	4280.16	500.16
0	60822	4280.16	400.16
0	60823	4280.16	300.16
0	60824	4280.16	600.16
0	60825	4280.16	500.16
0	60826	4280.16	400.16
0	60827	4280.16	300.16
0	60828	4280.16	200.16
0	60950	4290.16	700.16
0	60951	4290.16	600.16
0	60952	4290.16	500.16
0	60953	4290.16	400.16
0	60954	4290.16	300.16
0	60955	4290.16	600.16
0	60956	4290.16	500.16
0	60957	4290.16	400.16
0	60958	4290.16	300.16
0	60959	4290.16	200.16
0	61081	4300.16	700.16
0	61082	4300.16	600.16
0	61083	4300.16	500.16
0	61084	4300.16	400.16
0	61085	4300.16	300.16
0	61086	4300.16	600.16
0	61087	4300.16	500.16
0	61088	4300.16	400.16
0	61089	4300.16	300.16
0	61090	4300.16	200.16
0	61294	4310.2	700.2
0	61295	4310.2	600.2
0	61296	4310.2	500.2
0	61297	4310.2	400.2
0	61298	4310.2	300.2
0	61299	4310.2	600.2
0	61300	4310.2	500.2
0	61301	4310.2	400.2
0	61302	4310.2	300.2
0	61303	4310.2	200.2
0	61829	4320.2	700.2
0	61830	4320.2	600.2
0	61831	4320.2	500.2
0	61832	4320.2	400.2
0	61833	4320.2	300.2
0	61834	4320.2	600.2
0	61835	4320.2	500.2
0	61836	4320.2	400.2
0	61837	4320.2	300.2
0	61838	4320.2	200.2
0	62062	4330.2	700.2
0	62063	4330.2	600.2
0	62064	4330.2	500.2
0	62065	4330.2	400.2
0	62066	4330.2	300.2
0	62067	4330.2	600.2
0	62068	4330.2	500.2
0	62069	4330.2	400.2
0	62070	4330.2	300.2
0	62071	4330.2	200.2
0	62295	4340.2	700.2
0	62296	4340.2	600.2
0	62297	4340.2	500.2
0	62298	4340.2	400.2
0	62299	4340.2	300.2
0	62300	4340.2	600.2
0	62301	4340.2	500.2
0	62302	4340.2	400.2
0	62303	4340.2	300.2
0	62304	4340.2	200.2
0	62528	4350.2	700.2
0	62529	4350.2	600.2
0	62530	4350.2	500.2
0	62531	4350.2	400.2
0	62532	4350.2	300.2
0	62533	4350.2	600.2
0	62534	4350.2	500.2
0	62535	4350.2	400.2
0	62536	4350.2	300.2
0	62537	4350.2	200.2
0	62761	4360.2	700.2
0	62762	4360.2	600.2
0	62763	4360.2	500.2
0	62764	4360.2	400.2
0	62765	4360.2	300.2
0	62766	4360.2	600.2
0	62767	4360.2	500.2
0	62768	4360.2	400.2
0	62769	4360.2	300.2
0	62770	4360.2	200.2
0	63026	4370.2	800.2
0	63027	4370.2	700.2
0	63028	4370.2	600.2
0	63029	4370.2	500.2
0	63030	4370.2	400.2
0	63031	4370.2	300.2
0	63032	4370.2	600.2
0	63033	4370.2	500.2
0	63034	4370.2	400.2
0	63035	4370.2	300.2
0	63036	4370.2	200.2
0	63296	4380.2	800.2
0	63297	4380.2	700.2
0	63298	4380.2	600.2
0	63299	4380.2	500.2
0	63300	4380.2	400.2
0	63301	4380.2	300.2
0	63302	4380.2	600.2
0	63303	4380.2	500.2
0	63304	4380.2	400.2
0	63305	4380.2	300.2
0	63306	4380.2	200.2
0	63566	4390.2	800.2
0	63567	4390.2	700.2
0	63568	4390.2	600.2
0	63569	4390.2	500.2
0	63570	4390.2	400.2
0	63571	4390.2	300.2
0	63572	4390.2	600.2
0	63573	4390.2	500.2
0	63574	4390.2	400.2
0	63575	4390.2	300.2
0	63576	4390.2	200.2
0	63836	4400.2	800.2
0	63837	4400.2	700.2
0	63838	4400.2	600.2
0	63839	4400.2	500.2
0	63840	4400.2	400.2
0	63841	4400.2	300.2
0	63842	4400.2	600.2
0	63843	4400.2	500.2
0	63844	4400.2	400.2
0	63845	4400.2	300.2
0	63846	4400.2	200.2
0	64071	4410.2	800.2
0	64072	4410.2	700.2
0	64073	4410.2	600.2
0	64074	4410.2	500.2
0	64075	4410.2	400.2
0	64076	4410.2	300.2
0	64077	4410.2	600.2
0	64078	4410.2	500.2
0	64079	4410.2	400.2
0	64080	4410.2	300.2
0	64081	4410.2	200.2
0	64294	4420.2	800.2
0	64295	4420.2	700.2
0	64296	4420.2	600.2
0	64297	4420.2	500.2
0	64298	4420.2	400.2
0	64299	4420.2	300.2
0	64300	4420.2	600.2
0	64301	4420.2	500.2
0	64302	4420.2	400.2
0	64303	4420.2	300.2
0	64304	4420.2	200.2
0	64516	4430.2	800.2
0	64517	4430.2	700.2
0	64518	4430.2	600.2
0	64519	4430.2	500.2
0	64520	4430.2	400.2
0	64521	4430.2	300.2
0	64522	4430.2	600.2
0	64523	4430.2	500.2
0	64524	4430.2	400.2
0	64525	4430.2	300.2
0	64526	4430.2	200.2
0	64738	4440.2	800.2
0	64739	4440.2	700.2
0	64740	4440.2	600.2
0	64741	4440.2	500.2
0	64742	4440.2	400.2
0	64743	4440.2	300.2
0	64744	4440.2	600.2
0	64745	4440.2	500.2
0	64746	4440.2	400.2
0	64747	4440.2	300.2
0	64748	4440.2	200.2
0	64956	4450.2	800.2
0	64957	4450.2	700.2
0	64958	4450.2	600.2
0	64959	4450.2	500.2
0	64960	4450.2	400.2
0	64961	4450.2	300.2
0	64962	4450.2	600.2
0	64963	4450.2	500.2
0	64964	4450.2	400.2
0	64965	4450.2	300.2
0	64966	4450.2	200.2
0	65167	4460.2	800.2
0	65168	4460.2	700.2
0	65169	4460.2	600.2
0	65170	4460.2	500.2
0	65171	4460.2	400.2
0	65172	4460.2	300.2
0	65173	4460.2	600.2
0	65174	4460.2	500.2
0	65175	4460.2	400.2
0	65176	4460.2	300.2
0	65177	4460.2	200.2
0	65426	4470.2	900.2
0	65427	4470.2	800.2
0	65428	4470.2	700.2
0	65429	4470.2	600.2
0	65430	4470.2	500.2
0	65431	4470.2	400.2
0	65432	4470.2	300.2
0	65433	4470.2	600.2
0	65434	4470.2	500.2
0	65435	4470.2	400.2
0	65436	4470.2	300.2
0	65437	4470.2	200.2
0	65699	4480.2	900.2
0	65700	4480.2	800.2
0	65701	4480.2	700.2
0	65702	4480.2	600.2
0	65703	4480.2	500.2
0	65704	4480.2	400.2
0	65705	4480.2	300.2
0	65706	4480.2	600.2
0	65707	4480.2	500.2
0	65708	4480.2	400.2
0	65709	4480.2	300.2
0	65710	4480.2	200.2
0	65952	4490.2	900.2
0	65953	4490.2	800.2
0	65954	4490.2	700.2
0	65955	4490.2	600.2
0	65956	4490.2	500.2
0	65957	4490.2	400.2
0	65958	4490.2	300.2
0	65959	4490.2	600.2
0	65960	4490.2	500.2
0	65961	4490.2	400.2
0	65962	4490.2	300.2
0	65963	4490.2	200.2
0	66205	4500.2	900.2
0	66206	4500.2	800.2
0	66207	4500.2	700.2
0	66208	4500.2	600.2
0	66209	4500.2	500.2
0	66210	4500.2	400.2
0	66211	4500.2	300.2
0	66212	4500.2	600.2
0	66213	4500.2	500.2
0	66214	4500.2	400.2
0	66215	4500.2	300.2
0	66216	4500.2	200.2
0	66452	4510.2	900.2
0	66453	4510.2	800.2
0	66454	4510.2	700.2
0	66455	4510.2	600.2
0	66456	4510.2	500.2
0	66457	4510.2	400.2
0	66458	4510.2	300.2
0	66459	4510.2	600.2
0	66460	4510.2	500.2
0	66461	4510.2	400.2
0	66462	4510.2	300.2
0	66463	4510.2	200.2
0	66899	4520.2	900.2
0	66900	4520.2	800.2
0	66901	4520.2	700.2
0	66902	4520.2	600.2
0	66903	4520.2	500.2
0	66904	4520.2	400.2
0	66905	4520.2	300.2
0	66906	4520.2	600.2
0	66907	4520.2	500.2
0	66908	4520.2	400.2
0	66909	4520.2	300.2
0	66910	4520.2	200.2
0	67146	4530.2	900.2
0	67147	4530.2	800.2
0	67148	4530.2	700.2
0	67149	4530.2	600.2
0	67150	4530.2	500.2
0	67151	4530.2	400.2
0	67152	4530.2	300.2
0	67153	4530.2	600.2
0	67154	4530.2	500.2
0	67155	4530.2	400.2
0	67156	4530.2	300.2
0	67157	4530.2	200.2
0	69534	4540.2	600.2
0	69535	4540.2	500.2
0	69536	4540.2	400.2
0	69537	4540.2	300.2
0	69538	4540.2	200.2
0	70032	4550.2	600.2
0	70033	4550.2	500.2
0	70034	4550.2	400.2
0	70035	4550.2	300.2
0	70036	4550.2	200.2
0	70260	4560.2	600.2
0	70261	4560.2	500.2
0	70262	4560.2	400.2
0	70263	4560.2	300.2
0	70264	4560.2	200.2
0	70531	4570.2	700.2
0	70532	4570.2	600.2
0	70533	4570.2	500.2
0	70534	4570.2	400.2
0	70535	4570.2	300.2
0	70536	4570.2	300.2
0	70537	4570.2	200.2
0	70821	4580.2	700.2
0	70822	4580.2	600.2
0	70823	4580.2	500.2
0	70824	4580.2	400.2
0	70825	4580.2	300.2
0	70826	4580.2	300.2
0	70827	4580.2	200.2
0	71100	4590.2	700.2
0	71101	4590.2	600.2
0	71102	4590.2	500.2
0	71103	4590.2	400.2
0	71104	4590.2	300.2
0	71105	4590.2	300.2
0	71106	4590.2	200.2
0	71379	4600.2	700.2
0	71380	4600.2	600.2
0	71381	4600.2	500.2
0	71382	4600.2	400.2
0	71383	4600.2	300.2
0	71384	4600.2	300.2
0	71385	4600.2	200.2
0	71658	4610.2	700.2
0	71659	4610.2	600.2
0	71660	4610.2	500.2
0	71661	4610.2	400.2
0	71662	4610.2	300.2
0	71663	4610.2	300.2
0	71664	4610.2	200.2
0	71937	4620.2	700.2
0	71938	4620.2	600.2
0	71939	4620.2	500.2
0	71940	4620.2	400.2
0	71941	4620.2	300.2
0	71942	4620.2	300.2
0	71943	4620.2	200.2
0	72216	4630.2	700.2
0	72217	4630.2	600.2
0	72218	4630.2	500.2
0	72219	4630.2	400.2
0	72220	4630.2	300.2
0	72221	4630.2	300.2
0	72222	4630.2	200.2
0	72488	4640.2	700.2
0	72489	4640.2	600.2
0	72490	4640.2	500.2
0	72491	4640.2	400.2
0	72492	4640.2	300.2
0	72493	4640.2	300.2
0	72494	4640.2	200.2
0	72758	4650.2	700.2
0	72759	4650.2	300.2
0	72760	4650.2	600.2
0	72761	4650.2	200.2
0	72762	4650.2	500.2
0	72763	4650.2	400.2
0	72764	4650.2	300.2
0	73028	4660.2	700.2
0	73029	4660.2	300.2
0	73030	4660.2	600.2
0	73031	4660.2	200.2
0	73032	4660.2	500.2
0	73033	4660.2	400.2
0	73034	4660.2	300.2
0	73342	4670.2	800.2
0	73343	4670.2	400.2
0	73344	4670.2	700.2
0	73345	4670.2	300.2
0	73346	4670.2	600.2
0	73347	4670.2	200.2
0	73348	4670.2	500.2
0	73349	4670.2	400.2
0	73350	4670.2	300.2
0	73672	4680.2	800.2
0	73673	4680.2	400.2
0	73674	4680.2	700.2
0	73675	4680.2	300.2
0	73676	4680.2	600.2
0	73677	4680.2	200.2
0	73678	4680.2	500.2
0	73679	4680.2	400.2
0	73680	4680.2	300.2
0	73895	4690.2	400.2
0	73896	4690.2	300.2
0	73897	4690.2	200.2
0	74069	4700.2	400.2
0	74070	4700.2	300.2
0	74071	4700.2	200.2
0	74243	4710.2	400.2
0	74244	4710.2	300.2
0	74245	4710.2	200.2
0	74417	4720.2	400.2
0	74418	4720.2	300.2
0	74419	4720.2	200.2
0	74591	4730.2	400.2
0	74592	4730.2	300.2
0	74593	4730.2	200.2
0	74765	4740.2	400.2
0	74766	4740.2	300.2
0	74767	4740.2	200.2
0	74939	4750.2	400.2
0	74940	4750.2	300.2
0	74941	4750.2	200.2
0	75113	4760.2	400.2
0	75114	4760.2	300.2
0	75115	4760.2	200.2
0	75325	4770.2	500.2
0	75326	4770.2	400.2
0	75327	4770.2	300.2
0	75328	4770.2	200.2
0	75547	4780.2	500.2
0	75548	4780.2	400.2
0	75549	4780.2	300.2
0	75550	4780.2	200.2
0	75757	4790.2	500.2
0	75758	4790.2	400.2
0	75759	4790.2	300.2
0	75760	4790.2	200.2
0	75967	4800.2	500.2
0	75968	4800.2	400.2
0	75969	4800.2	300.2
0	75970	4800.2	200.2
0	76173	4810.2	500.2
0	76174	4810.2	400.2
0	76175	4810.2	300.2
0	76176	4810.2	200.2
0	76424	4820.2	500.2
0	76425	4820.2	400.2
0	76426	4820.2	300.2
0	76427	4820.2	200.2
0	76654	4830.2	500.2
0	76655	4830.2	400.2
0	76656	4830.2	300.2
0	76657	4830.2	200.2
0	76882	4840.2	500.2
0	76883	4840.2	400.2
0	76884	4840.2	300.2
0	76885	4840.2	200.2
0	77094	4850.2	500.2
0	77095	4850.2	400.2
0	77096	4850.2	300.2
0	77097	4850.2	200.2
0	77302	4860.2	500.2
0	77303	4860.2	400.2
0	77304	4860.2	300.2
0	77305	4860.2	200.2
0	77543	4870.2	600.2
0	77544	4870.2	500.2
0	77545	4870.2	400.2
0	77546	4870.2	300.2
0	77547	4870.2	200.2
0	77794	4880.2	600.2
0	77795	4880.2	500.2
0	77796	4880.2	400.2
0	77797	4880.2	300.2
0	77798	4880.2	200.2
0	77981	4890.2	600.2
0	77982	4890.2	500.2
0	77983	4890.2	400.2
0	77984	4890.2	300.2
0	77985	4890.2	200.2
0	78156	4900.2	600.2
0	78157	4900.2	500.2
0	78158	4900.2	400.2
0	78159	4900.2	300.2
0	78160	4900.2	200.2
0	78325	4910.2	600.2
0	78326	4910.2	500.2
0	78327	4910.2	400.2
0	78328	4910.2	300.2
0	78329	4910.2	200.2
0	78494	4920.2	600.2
0	78495	4920.2	500.2
0	78496	4920.2	400.2
0	78497	4920.2	300.2
0	78498	4920.2	200.2
0	78663	4930.2	600.2
0	78664	4930.2	500.2
0	78665	4930.2	400.2
0	78666	4930.2	300.2
0	78667	4930.2	200.2
0	78832	4940.2	600.2
0	78833	4940.2	500.2
0	78834	4940.2	400.2
0	78835	4940.2	300.2
0	78836	4940.2	200.2
0	79001	4950.2	600.2
0	79002	4950.2	500.2
0	79003	4950.2	400.2
0	79004	4950.2	300.2
0	79005	4950.2	200.2
0	79170	4960.2	600.2
0	79171	4960.2	500.2
0	79172	4960.2	400.2
0	79173	4960.2	300.2
0	79174	4960.2	200.2
0	79361	4970.2	700.2
0	79362	4970.2	600.2
0	79363	4970.2	500.2
0	79364	4970.2	400.2
0	79365	4970.2	300.2
0	79366	4970.2	200.2
0	79560	4980.2	700.2
0	79561	4980.2	600.2
0	79562	4980.2	500.2
0	79563	4980.2	400.2
0	79564	4980.2	300.2
0	79565	4980.2	200.2
0	79759	4990.2	700.2
0	79760	4990.2	600.2
0	79761	4990.2	500.2
0	79762	4990.2	400.2
0	79763	4990.2	300.2
0	79764	4990.2	200.2
0	79958	5000.2	700.2
0	79959	5000.2	600.2
0	79960	5000.2	500.2
0	79961	5000.2	400.2
0	79962	5000.2	300.2
0	79963	5000.2	200.2

