version 2
run General-0-20250114-07:43:26-16971
attr configname General
attr datetime 20250114-07:43:26
attr experiment General
attr inifile shaw.ini
attr iterationvars ""
attr iterationvarsf ""
attr measurement ""
attr network src.dtnsim
attr processid 16971
attr repetition 0
attr replication #0
attr resultdir results
attr runnumber 0
attr seedset 0
param dtnsim.central.contactsFile "\"contactPlan/Contacts.txt\""
param dtnsim.central.contactsFile_A "\"contactPlan/Contacts_A.txt\""
param dtnsim.central.contactsFile_B "\"contactPlan/Contacts_B.txt\""
param dtnsim.central.contactIdsToDelete_from_celestialA "\"1 4 10 27 30 35 42 43 63 66 87 110 121 129 135 140 141 143 151 171 179 211 216 230 243 250 279 283 292 309 317 318 325 326 344 352 353 356 379 386 389 391 399 416 437 438 447 456 466 467 473 474 482\""
param dtnsim.central.contactIdsToDelete_from_celestialB "\"14 15 36 46 53 62 71 83 84 111 113 114 115 120 156 157 167 186 187 194 207 210 213 231 262 276 284 286 303 320 323 334 340 355 357 365 366 373 404 409 412 433 445 471 477 493 496\""
param dtnsim.central.celestialA_nodes "\"1 2 3\""
param dtnsim.central.celestialB_nodes "\"4 5 6\""
param dtnsim.central.locallyfaultsAware false
param dtnsim.central.mode_two_celestial true
param dtnsim.nodesNumber 6
param dtnsim.node[1].icon "\"receiverdish\""
param dtnsim.node[2..5].icon "\"satellite\""
param dtnsim.node[6].icon "\"receiverdish\""
param dtnsim.node[*].dtn.routing "\"cgrModel350\""
param dtnsim.node[*].dtn.routingType "\"routeListType:allPaths-firstEnding,volumeAware:allContacts,extensionBlock:on,contactPlan:global\""
param dtnsim.node[1].app.enable true
param dtnsim.node[*].app.custodyTransfer true
param dtnsim.node[1].app.bundlesNumber "\"2000\""
param dtnsim.node[1].app.start "\"0\""
param dtnsim.node[1].app.destinationEid "\"6\""
param dtnsim.node[1].app.size "\"1500\""
param dtnsim.node[1].app.interval 1

vector 0 dtnsim.node[6].app appBundleReceivedDelayvec:vector ETV
attr interpolationmode none
attr source appBundleReceivedDelay
attr title "appBundleReceivedDelayvec, vector"
0	10831	309.4	118.4
0	10832	309.4	117.4
0	10833	309.4	116.4
0	10834	309.4	115.4
0	10835	309.4	114.4
0	10836	309.4	113.4
0	10837	309.4	112.4
0	10838	309.4	111.4
0	10839	309.4	110.4
0	10840	309.4	109.4
0	10841	309.4	108.4
0	10842	309.4	107.4
0	10843	309.4	106.4
0	10844	309.4	105.4
0	10845	309.4	104.4
0	10846	309.4	103.4
0	10847	309.4	102.4
0	10848	309.4	101.4
0	10849	309.4	100.4
0	10850	309.4	99.4
0	10851	309.4	98.4
0	10852	309.4	97.4
0	10853	309.4	96.4
0	10854	309.4	95.4
0	10855	309.4	94.4
0	10856	309.4	93.4
0	10857	309.4	92.4
0	10858	309.4	91.4
0	10859	309.4	90.4
0	10860	309.4	89.4
0	10861	309.4	88.4
0	10862	309.4	87.4
0	10863	309.4	86.4
0	10864	309.4	85.4
0	10865	309.4	84.4
0	10866	309.4	83.4
0	10867	309.4	82.4
0	10868	309.4	81.4
0	10869	309.4	80.4
0	10870	309.4	79.4
0	10871	309.4	78.4
0	10872	309.4	77.4
0	10873	309.4	76.4
0	10874	309.4	75.4
0	10875	309.4	74.4
0	10876	309.4	73.4
0	10877	309.4	72.4
0	10878	309.4	71.4
0	10879	309.4	70.4
0	10880	309.4	69.4
0	10881	309.4	68.4
0	10882	309.4	67.4
0	10883	309.4	66.4
0	10884	309.4	65.4
0	10885	309.4	64.4
0	10886	309.4	63.4
0	10887	309.4	62.4
0	10888	309.4	61.4
0	10889	309.4	60.4
0	10890	309.4	59.4
0	10891	309.4	58.4
0	10892	309.4	57.4
0	10893	309.4	56.4
0	10894	309.4	55.4
0	10895	309.4	54.4
0	10896	309.4	53.4
0	10897	309.4	52.4
0	10898	309.4	51.4
0	10899	309.4	50.4
0	10900	309.4	49.4
0	10901	309.4	48.4
0	10902	309.4	47.4
0	10903	309.4	46.4
0	10904	309.4	45.4
0	10905	309.4	44.4
0	10906	309.4	43.4
0	10907	309.4	42.4
0	10908	309.4	41.4
0	10909	309.4	40.4
0	10910	309.4	39.4
0	10911	309.4	38.4
0	10912	309.4	37.4
0	10913	309.4	36.4
0	10914	309.4	35.4
0	10915	309.4	34.4
0	10916	309.4	33.4
0	10917	309.4	32.4
0	10918	309.4	31.4
0	10919	309.4	30.4
0	10920	309.4	29.4
0	10921	309.4	28.4
0	10922	309.4	27.4
0	10923	309.4	26.4
0	10924	309.4	25.4
0	10925	309.4	24.4
0	10926	309.4	23.4
0	10927	309.4	22.4
0	10928	309.4	21.4
0	10929	309.4	20.4
0	10930	309.4	19.4
0	10931	309.4	18.4
0	10932	309.4	17.4
0	10933	309.4	16.4
0	10934	309.4	15.4
0	10935	309.4	14.4
0	10936	309.4	13.4
0	10937	309.4	12.4
0	10938	309.4	11.4
0	10939	309.4	10.4
0	10940	309.4	9.4
0	10941	309.4	8.4
0	10942	309.4	7.4
0	10943	309.4	309.4
0	10944	309.4	308.4
0	10945	309.4	307.4
0	10946	309.4	306.4
0	10947	309.4	305.4
0	10948	309.4	304.4
0	10949	309.4	303.4
0	10950	309.4	302.4
0	10951	309.4	301.4
0	10952	309.4	300.4
0	10953	309.4	299.4
0	10954	309.4	298.4
0	10955	309.4	297.4
0	10956	309.4	296.4
0	10957	309.4	295.4
0	10958	309.4	294.4
0	10959	309.4	293.4
0	10960	309.4	292.4
0	10961	309.4	291.4
0	10962	309.4	290.4
0	10963	309.4	289.4
0	10964	309.4	288.4
0	10965	309.4	287.4
0	10966	309.4	286.4
0	10967	309.4	285.4
0	10968	309.4	284.4
0	10969	309.4	283.4
0	10970	309.4	282.4
0	10971	309.4	281.4
0	10972	309.4	280.4
0	10973	309.4	279.4
0	10974	309.4	278.4
0	10975	309.4	277.4
0	10976	309.4	276.4
0	10977	309.4	275.4
0	10978	309.4	274.4
0	10979	309.4	273.4
0	10980	309.4	272.4
0	10981	309.4	271.4
0	10982	309.4	270.4
0	10983	309.4	269.4
0	10984	309.4	268.4
0	10985	309.4	267.4
0	10986	309.4	266.4
0	10987	309.4	265.4
0	10988	309.4	264.4
0	10989	309.4	263.4
0	10990	309.4	262.4
0	10991	309.4	261.4
0	10992	309.4	260.4
0	10993	309.4	259.4
0	10994	309.4	258.4
0	10995	309.4	257.4
0	10996	309.4	256.4
0	10997	309.4	255.4
0	10998	309.4	254.4
0	10999	309.4	253.4
0	11000	309.4	252.4
0	11001	309.4	251.4
0	11002	309.4	250.4
0	11003	309.4	249.4
0	11004	309.4	248.4
0	11005	309.4	247.4
0	11006	309.4	246.4
0	11007	309.4	245.4
0	11008	309.4	244.4
0	11009	309.4	243.4
0	11010	309.4	242.4
0	11011	309.4	241.4
0	11012	309.4	240.4
0	11013	309.4	239.4
0	11014	309.4	238.4
0	11015	309.4	237.4
0	11016	309.4	236.4
0	11017	309.4	235.4
0	11018	309.4	234.4
0	11019	309.4	233.4
0	11020	309.4	232.4
0	11021	309.4	231.4
0	11022	309.4	230.4
0	11023	309.4	229.4
0	11024	309.4	228.4
0	11025	309.4	227.4
0	11026	309.4	226.4
0	11027	309.4	225.4
0	11028	309.4	224.4
0	11029	309.4	223.4
0	11030	309.4	222.4
0	11031	309.4	221.4
0	11032	309.4	220.4
0	11033	309.4	219.4
0	11034	309.4	218.4
0	11035	309.4	217.4
0	11036	309.4	216.4
0	11037	309.4	215.4
0	11038	309.4	214.4
0	11039	309.4	213.4
0	11040	309.4	212.4
0	11041	309.4	211.4
0	11042	309.4	210.4
0	11043	309.4	209.4
0	11044	309.4	208.4
0	11045	309.4	207.4
0	11046	309.4	206.4
0	11047	309.4	205.4
0	11048	309.4	204.4
0	11049	309.4	203.4
0	11050	309.4	202.4
0	11051	309.4	201.4
0	11052	309.4	200.4
0	11053	309.4	199.4
0	11054	309.4	198.4
0	11055	309.4	197.4
0	11056	309.4	196.4
0	11057	309.4	195.4
0	11058	309.4	194.4
0	11059	309.4	193.4
0	11060	309.4	192.4
0	11061	309.4	191.4
0	11062	309.4	190.4
0	11063	309.4	189.4
0	11064	309.4	188.4
0	11065	309.4	187.4
0	11066	309.4	186.4
0	11067	309.4	185.4
0	11068	309.4	184.4
0	11069	309.4	183.4
0	11070	309.4	182.4
0	11071	309.4	181.4
0	11072	309.4	180.4
0	11073	309.4	179.4
0	11074	309.4	178.4
0	11075	309.4	177.4
0	11076	309.4	176.4
0	11077	309.4	175.4
0	11078	309.4	174.4
0	11079	309.4	173.4
0	11080	309.4	172.4
0	11081	309.4	171.4
0	11082	309.4	170.4
0	11083	309.4	169.4
0	11084	309.4	168.4
0	11085	309.4	167.4
0	11086	309.4	166.4
0	11087	309.4	165.4
0	11088	309.4	164.4
0	11089	309.4	163.4
0	11090	309.4	162.4
0	11091	309.4	161.4
0	11092	309.4	160.4
0	11093	309.4	159.4
0	11094	309.4	158.4
0	11095	309.4	157.4
0	11096	309.4	156.4
0	11097	309.4	155.4
0	11098	309.4	154.4
0	11099	309.4	153.4
0	11100	309.4	152.4
0	11101	309.4	151.4
0	11102	309.4	150.4
0	11103	309.4	149.4
0	11104	309.4	148.4
0	11105	309.4	147.4
0	11106	309.4	146.4
0	11107	309.4	145.4
0	11108	309.4	144.4
0	11109	309.4	143.4
0	11110	309.4	142.4
0	11111	309.4	141.4
0	11112	309.4	140.4
0	11113	309.4	139.4
0	11114	309.4	138.4
0	11115	309.4	137.4
0	11116	309.4	136.4
0	11117	309.4	135.4
0	11118	309.4	134.4
0	11119	309.4	133.4
0	11120	309.4	132.4
0	11121	309.4	131.4
0	11122	309.4	130.4
0	11123	309.4	129.4
0	11124	309.4	128.4
0	11125	309.4	127.4
0	11126	309.4	126.4
0	11127	309.4	125.4
0	11128	309.4	124.4
0	11129	309.4	123.4
0	11130	309.4	122.4
0	11131	309.4	121.4
0	11132	309.4	120.4
0	11133	309.4	119.4
0	11134	309.4	6.4
0	11135	309.4	5.4
0	11136	309.4	4.4
0	11137	309.4	3.4
0	11138	309.4	2.4
0	11152	309.5	1.5
0	11188	310.5	1.5
0	11224	311.5	1.5
0	11260	312.5	1.5
0	11296	313.5	1.5
0	11332	314.5	1.5
0	11370	315.5	1.5
0	11407	316.5	1.5
0	11444	317.5	1.5
0	11481	318.5	1.5
0	11518	319.5	1.5
0	11555	320.5	1.5
0	11592	321.5	1.5
0	11629	322.5	1.5
0	11666	323.5	1.5
0	11703	324.5	1.5
0	11740	325.5	1.5
0	11777	326.5	1.5
0	11817	327.5	1.5
0	11855	328.5	1.5
0	11893	329.5	1.5
0	11931	330.5	1.5
0	11969	331.5	1.5
0	12007	332.5	1.5
0	12048	333.5	1.5
0	12087	334.5	1.5
0	12126	335.5	1.5
0	12165	336.5	1.5
0	12204	337.5	1.5
0	12243	338.5	1.5
0	12282	339.5	1.5
0	12323	340.5	1.5
0	12362	341.5	1.5
0	12400	342.5	1.5
0	12438	343.5	1.5
0	12476	344.5	1.5
0	12520	345.5	1.5
0	12534	346.5	1.5
0	20706	409.4	218.4
0	20707	409.4	218.4
0	20708	409.4	217.4
0	20709	409.4	217.4
0	20710	409.4	216.4
0	20711	409.4	216.4
0	20712	409.4	215.4
0	20713	409.4	215.4
0	20714	409.4	214.4
0	20715	409.4	214.4
0	20716	409.4	213.4
0	20717	409.4	213.4
0	20718	409.4	212.4
0	20719	409.4	212.4
0	20720	409.4	211.4
0	20721	409.4	211.4
0	20722	409.4	210.4
0	20723	409.4	210.4
0	20724	409.4	209.4
0	20725	409.4	209.4
0	20726	409.4	208.4
0	20727	409.4	208.4
0	20728	409.4	207.4
0	20729	409.4	207.4
0	20730	409.4	206.4
0	20731	409.4	206.4
0	20732	409.4	205.4
0	20733	409.4	205.4
0	20734	409.4	204.4
0	20735	409.4	204.4
0	20736	409.4	203.4
0	20737	409.4	203.4
0	20738	409.4	202.4
0	20739	409.4	202.4
0	20740	409.4	201.4
0	20741	409.4	201.4
0	20742	409.4	200.4
0	20743	409.4	200.4
0	20744	409.4	199.4
0	20745	409.4	199.4
0	20746	409.4	198.4
0	20747	409.4	198.4
0	20748	409.4	197.4
0	20749	409.4	197.4
0	20750	409.4	196.4
0	20751	409.4	196.4
0	20752	409.4	195.4
0	20753	409.4	195.4
0	20754	409.4	194.4
0	20755	409.4	194.4
0	20756	409.4	193.4
0	20757	409.4	193.4
0	20758	409.4	192.4
0	20759	409.4	192.4
0	20760	409.4	191.4
0	20761	409.4	191.4
0	20762	409.4	190.4
0	20763	409.4	190.4
0	20764	409.4	189.4
0	20765	409.4	189.4
0	20766	409.4	188.4
0	20767	409.4	188.4
0	20768	409.4	187.4
0	20769	409.4	187.4
0	20770	409.4	186.4
0	20771	409.4	186.4
0	20772	409.4	185.4
0	20773	409.4	185.4
0	20774	409.4	184.4
0	20775	409.4	184.4
0	20776	409.4	183.4
0	20777	409.4	183.4
0	20778	409.4	182.4
0	20779	409.4	182.4
0	20780	409.4	181.4
0	20781	409.4	181.4
0	20782	409.4	180.4
0	20783	409.4	180.4
0	20784	409.4	179.4
0	20785	409.4	179.4
0	20786	409.4	178.4
0	20787	409.4	178.4
0	20788	409.4	177.4
0	20789	409.4	177.4
0	20790	409.4	176.4
0	20791	409.4	176.4
0	20792	409.4	175.4
0	20793	409.4	175.4
0	20794	409.4	174.4
0	20795	409.4	174.4
0	20796	409.4	173.4
0	20797	409.4	173.4
0	20798	409.4	172.4
0	20799	409.4	172.4
0	20800	409.4	171.4
0	20801	409.4	171.4
0	20802	409.4	170.4
0	20803	409.4	170.4
0	20804	409.4	169.4
0	20805	409.4	169.4
0	20806	409.4	168.4
0	20807	409.4	168.4
0	20808	409.4	167.4
0	20809	409.4	167.4
0	20810	409.4	166.4
0	20811	409.4	166.4
0	20812	409.4	165.4
0	20813	409.4	165.4
0	20814	409.4	164.4
0	20815	409.4	164.4
0	20816	409.4	163.4
0	20817	409.4	163.4
0	20818	409.4	162.4
0	20819	409.4	162.4
0	20820	409.4	161.4
0	20821	409.4	161.4
0	20822	409.4	160.4
0	20823	409.4	160.4
0	20824	409.4	159.4
0	20825	409.4	159.4
0	20826	409.4	158.4
0	20827	409.4	158.4
0	20828	409.4	157.4
0	20829	409.4	157.4
0	20830	409.4	156.4
0	20831	409.4	156.4
0	20832	409.4	155.4
0	20833	409.4	155.4
0	20834	409.4	154.4
0	20835	409.4	154.4
0	20836	409.4	153.4
0	20837	409.4	153.4
0	20838	409.4	152.4
0	20839	409.4	152.4
0	20840	409.4	151.4
0	20841	409.4	151.4
0	20842	409.4	150.4
0	20843	409.4	150.4
0	20844	409.4	149.4
0	20845	409.4	149.4
0	20846	409.4	148.4
0	20847	409.4	148.4
0	20848	409.4	147.4
0	20849	409.4	147.4
0	20850	409.4	146.4
0	20851	409.4	146.4
0	20852	409.4	145.4
0	20853	409.4	145.4
0	20854	409.4	144.4
0	20855	409.4	144.4
0	20856	409.4	143.4
0	20857	409.4	143.4
0	20858	409.4	142.4
0	20859	409.4	142.4
0	20860	409.4	141.4
0	20861	409.4	141.4
0	20862	409.4	140.4
0	20863	409.4	140.4
0	20864	409.4	139.4
0	20865	409.4	139.4
0	20866	409.4	138.4
0	20867	409.4	138.4
0	20868	409.4	137.4
0	20869	409.4	137.4
0	20870	409.4	136.4
0	20871	409.4	136.4
0	20872	409.4	135.4
0	20873	409.4	135.4
0	20874	409.4	134.4
0	20875	409.4	134.4
0	20876	409.4	133.4
0	20877	409.4	133.4
0	20878	409.4	132.4
0	20879	409.4	132.4
0	20880	409.4	131.4
0	20881	409.4	131.4
0	20882	409.4	130.4
0	20883	409.4	130.4
0	20884	409.4	129.4
0	20885	409.4	129.4
0	20886	409.4	128.4
0	20887	409.4	128.4
0	20888	409.4	127.4
0	20889	409.4	127.4
0	20890	409.4	126.4
0	20891	409.4	126.4
0	20892	409.4	125.4
0	20893	409.4	125.4
0	20894	409.4	124.4
0	20895	409.4	124.4
0	20896	409.4	123.4
0	20897	409.4	123.4
0	20898	409.4	122.4
0	20899	409.4	122.4
0	20900	409.4	121.4
0	20901	409.4	121.4
0	20902	409.4	120.4
0	20903	409.4	120.4
0	20904	409.4	119.4
0	20905	409.4	119.4
0	20906	409.4	118.4
0	20907	409.4	118.4
0	20908	409.4	117.4
0	20909	409.4	117.4
0	20910	409.4	116.4
0	20911	409.4	116.4
0	20912	409.4	115.4
0	20913	409.4	115.4
0	20914	409.4	114.4
0	20915	409.4	114.4
0	20916	409.4	113.4
0	20917	409.4	113.4
0	20918	409.4	112.4
0	20919	409.4	112.4
0	20920	409.4	111.4
0	20921	409.4	111.4
0	20922	409.4	110.4
0	20923	409.4	110.4
0	20924	409.4	109.4
0	20925	409.4	109.4
0	20926	409.4	108.4
0	20927	409.4	108.4
0	20928	409.4	107.4
0	20929	409.4	107.4
0	20930	409.4	409.4
0	20931	409.4	409.4
0	20932	409.4	408.4
0	20933	409.4	408.4
0	20934	409.4	407.4
0	20935	409.4	407.4
0	20936	409.4	406.4
0	20937	409.4	406.4
0	20938	409.4	405.4
0	20939	409.4	405.4
0	20940	409.4	404.4
0	20941	409.4	404.4
0	20942	409.4	403.4
0	20943	409.4	403.4
0	20944	409.4	402.4
0	20945	409.4	402.4
0	20946	409.4	401.4
0	20947	409.4	401.4
0	20948	409.4	400.4
0	20949	409.4	400.4
0	20950	409.4	399.4
0	20951	409.4	399.4
0	20952	409.4	398.4
0	20953	409.4	398.4
0	20954	409.4	397.4
0	20955	409.4	397.4
0	20956	409.4	396.4
0	20957	409.4	396.4
0	20958	409.4	395.4
0	20959	409.4	395.4
0	20960	409.4	394.4
0	20961	409.4	394.4
0	20962	409.4	393.4
0	20963	409.4	393.4
0	20964	409.4	392.4
0	20965	409.4	392.4
0	20966	409.4	391.4
0	20967	409.4	391.4
0	20968	409.4	390.4
0	20969	409.4	390.4
0	20970	409.4	389.4
0	20971	409.4	389.4
0	20972	409.4	388.4
0	20973	409.4	388.4
0	20974	409.4	387.4
0	20975	409.4	387.4
0	20976	409.4	386.4
0	20977	409.4	386.4
0	20978	409.4	385.4
0	20979	409.4	385.4
0	20980	409.4	384.4
0	20981	409.4	384.4
0	20982	409.4	383.4
0	20983	409.4	383.4
0	20984	409.4	382.4
0	20985	409.4	382.4
0	20986	409.4	381.4
0	20987	409.4	381.4
0	20988	409.4	380.4
0	20989	409.4	380.4
0	20990	409.4	379.4
0	20991	409.4	379.4
0	20992	409.4	378.4
0	20993	409.4	378.4
0	20994	409.4	377.4
0	20995	409.4	377.4
0	20996	409.4	376.4
0	20997	409.4	376.4
0	20998	409.4	375.4
0	20999	409.4	375.4
0	21000	409.4	374.4
0	21001	409.4	374.4
0	21002	409.4	373.4
0	21003	409.4	373.4
0	21004	409.4	372.4
0	21005	409.4	372.4
0	21006	409.4	371.4
0	21007	409.4	371.4
0	21008	409.4	370.4
0	21009	409.4	370.4
0	21010	409.4	369.4
0	21011	409.4	369.4
0	21012	409.4	368.4
0	21013	409.4	368.4
0	21014	409.4	367.4
0	21015	409.4	367.4
0	21016	409.4	366.4
0	21017	409.4	366.4
0	21018	409.4	365.4
0	21019	409.4	365.4
0	21020	409.4	364.4
0	21021	409.4	364.4
0	21022	409.4	363.4
0	21023	409.4	363.4
0	21024	409.4	362.4
0	21025	409.4	362.4
0	21026	409.4	361.4
0	21027	409.4	361.4
0	21028	409.4	360.4
0	21029	409.4	360.4
0	21030	409.4	359.4
0	21031	409.4	359.4
0	21032	409.4	358.4
0	21033	409.4	358.4
0	21034	409.4	357.4
0	21035	409.4	357.4
0	21036	409.4	356.4
0	21037	409.4	356.4
0	21038	409.4	355.4
0	21039	409.4	355.4
0	21040	409.4	354.4
0	21041	409.4	354.4
0	21042	409.4	353.4
0	21043	409.4	353.4
0	21044	409.4	352.4
0	21045	409.4	352.4
0	21046	409.4	351.4
0	21047	409.4	351.4
0	21048	409.4	350.4
0	21049	409.4	350.4
0	21050	409.4	349.4
0	21051	409.4	349.4
0	21052	409.4	348.4
0	21053	409.4	348.4
0	21054	409.4	347.4
0	21055	409.4	347.4
0	21056	409.4	346.4
0	21057	409.4	346.4
0	21058	409.4	345.4
0	21059	409.4	345.4
0	21060	409.4	344.4
0	21061	409.4	344.4
0	21062	409.4	343.4
0	21063	409.4	343.4
0	21064	409.4	342.4
0	21065	409.4	342.4
0	21066	409.4	341.4
0	21067	409.4	341.4
0	21068	409.4	340.4
0	21069	409.4	340.4
0	21070	409.4	339.4
0	21071	409.4	339.4
0	21072	409.4	338.4
0	21073	409.4	338.4
0	21074	409.4	337.4
0	21075	409.4	337.4
0	21076	409.4	336.4
0	21077	409.4	336.4
0	21078	409.4	335.4
0	21079	409.4	335.4
0	21080	409.4	334.4
0	21081	409.4	334.4
0	21082	409.4	333.4
0	21083	409.4	333.4
0	21084	409.4	332.4
0	21085	409.4	332.4
0	21086	409.4	331.4
0	21087	409.4	331.4
0	21088	409.4	330.4
0	21089	409.4	330.4
0	21090	409.4	329.4
0	21091	409.4	329.4
0	21092	409.4	328.4
0	21093	409.4	328.4
0	21094	409.4	327.4
0	21095	409.4	327.4
0	21096	409.4	326.4
0	21097	409.4	326.4
0	21098	409.4	325.4
0	21099	409.4	325.4
0	21100	409.4	324.4
0	21101	409.4	324.4
0	21102	409.4	323.4
0	21103	409.4	323.4
0	21104	409.4	322.4
0	21105	409.4	322.4
0	21106	409.4	321.4
0	21107	409.4	321.4
0	21108	409.4	320.4
0	21109	409.4	320.4
0	21110	409.4	319.4
0	21111	409.4	319.4
0	21112	409.4	318.4
0	21113	409.4	318.4
0	21114	409.4	317.4
0	21115	409.4	317.4
0	21116	409.4	316.4
0	21117	409.4	316.4
0	21118	409.4	315.4
0	21119	409.4	315.4
0	21120	409.4	314.4
0	21121	409.4	314.4
0	21122	409.4	313.4
0	21123	409.4	313.4
0	21124	409.4	312.4
0	21125	409.4	312.4
0	21126	409.4	311.4
0	21127	409.4	311.4
0	21128	409.4	310.4
0	21129	409.4	310.4
0	21130	409.4	309.4
0	21131	409.4	309.4
0	21132	409.4	308.4
0	21133	409.4	308.4
0	21134	409.4	307.4
0	21135	409.4	307.4
0	21136	409.4	306.4
0	21137	409.4	306.4
0	21138	409.4	305.4
0	21139	409.4	305.4
0	21140	409.4	304.4
0	21141	409.4	304.4
0	21142	409.4	303.4
0	21143	409.4	303.4
0	21144	409.4	302.4
0	21145	409.4	302.4
0	21146	409.4	301.4
0	21147	409.4	301.4
0	21148	409.4	300.4
0	21149	409.4	300.4
0	21150	409.4	299.4
0	21151	409.4	299.4
0	21152	409.4	298.4
0	21153	409.4	298.4
0	21154	409.4	297.4
0	21155	409.4	297.4
0	21156	409.4	296.4
0	21157	409.4	296.4
0	21158	409.4	295.4
0	21159	409.4	295.4
0	21160	409.4	294.4
0	21161	409.4	294.4
0	21162	409.4	293.4
0	21163	409.4	293.4
0	21164	409.4	292.4
0	21165	409.4	292.4
0	21166	409.4	291.4
0	21167	409.4	291.4
0	21168	409.4	290.4
0	21169	409.4	290.4
0	21170	409.4	289.4
0	21171	409.4	289.4
0	21172	409.4	288.4
0	21173	409.4	288.4
0	21174	409.4	287.4
0	21175	409.4	287.4
0	21176	409.4	286.4
0	21177	409.4	286.4
0	21178	409.4	285.4
0	21179	409.4	285.4
0	21180	409.4	284.4
0	21181	409.4	284.4
0	21182	409.4	283.4
0	21183	409.4	283.4
0	21184	409.4	282.4
0	21185	409.4	282.4
0	21186	409.4	281.4
0	21187	409.4	281.4
0	21188	409.4	280.4
0	21189	409.4	280.4
0	21190	409.4	279.4
0	21191	409.4	279.4
0	21192	409.4	278.4
0	21193	409.4	278.4
0	21194	409.4	277.4
0	21195	409.4	277.4
0	21196	409.4	276.4
0	21197	409.4	276.4
0	21198	409.4	275.4
0	21199	409.4	275.4
0	21200	409.4	274.4
0	21201	409.4	274.4
0	21202	409.4	273.4
0	21203	409.4	273.4
0	21204	409.4	272.4
0	21205	409.4	272.4
0	21206	409.4	271.4
0	21207	409.4	271.4
0	21208	409.4	270.4
0	21209	409.4	270.4
0	21210	409.4	269.4
0	21211	409.4	269.4
0	21212	409.4	268.4
0	21213	409.4	268.4
0	21214	409.4	267.4
0	21215	409.4	267.4
0	21216	409.4	266.4
0	21217	409.4	266.4
0	21218	409.4	265.4
0	21219	409.4	265.4
0	21220	409.4	264.4
0	21221	409.4	264.4
0	21222	409.4	263.4
0	21223	409.4	263.4
0	21224	409.4	262.4
0	21225	409.4	262.4
0	21226	409.4	261.4
0	21227	409.4	261.4
0	21228	409.4	260.4
0	21229	409.4	260.4
0	21230	409.4	259.4
0	21231	409.4	259.4
0	21232	409.4	258.4
0	21233	409.4	258.4
0	21234	409.4	257.4
0	21235	409.4	257.4
0	21236	409.4	256.4
0	21237	409.4	256.4
0	21238	409.4	255.4
0	21239	409.4	255.4
0	21240	409.4	254.4
0	21241	409.4	254.4
0	21242	409.4	253.4
0	21243	409.4	253.4
0	21244	409.4	252.4
0	21245	409.4	252.4
0	21246	409.4	251.4
0	21247	409.4	251.4
0	21248	409.4	250.4
0	21249	409.4	250.4
0	21250	409.4	249.4
0	21251	409.4	249.4
0	21252	409.4	248.4
0	21253	409.4	248.4
0	21254	409.4	247.4
0	21255	409.4	247.4
0	21256	409.4	246.4
0	21257	409.4	246.4
0	21258	409.4	245.4
0	21259	409.4	245.4
0	21260	409.4	244.4
0	21261	409.4	244.4
0	21262	409.4	243.4
0	21263	409.4	243.4
0	21264	409.4	242.4
0	21265	409.4	242.4
0	21266	409.4	241.4
0	21267	409.4	241.4
0	21268	409.4	240.4
0	21269	409.4	240.4
0	21270	409.4	239.4
0	21271	409.4	239.4
0	21272	409.4	238.4
0	21273	409.4	238.4
0	21274	409.4	237.4
0	21275	409.4	237.4
0	21276	409.4	236.4
0	21277	409.4	236.4
0	21278	409.4	235.4
0	21279	409.4	235.4
0	21280	409.4	234.4
0	21281	409.4	234.4
0	21282	409.4	233.4
0	21283	409.4	233.4
0	21284	409.4	232.4
0	21285	409.4	232.4
0	21286	409.4	231.4
0	21287	409.4	231.4
0	21288	409.4	230.4
0	21289	409.4	230.4
0	21290	409.4	229.4
0	21291	409.4	229.4
0	21292	409.4	228.4
0	21293	409.4	228.4
0	21294	409.4	227.4
0	21295	409.4	227.4
0	21296	409.4	226.4
0	21297	409.4	226.4
0	21298	409.4	225.4
0	21299	409.4	225.4
0	21300	409.4	224.4
0	21301	409.4	224.4
0	21302	409.4	223.4
0	21303	409.4	223.4
0	21304	409.4	222.4
0	21305	409.4	222.4
0	21306	409.4	221.4
0	21307	409.4	221.4
0	21308	409.4	220.4
0	21309	409.4	220.4
0	21310	409.4	219.4
0	21311	409.4	219.4
0	21312	409.4	106.4
0	21313	409.4	106.4
0	21314	409.4	105.4
0	21315	409.4	105.4
0	21316	409.4	104.4
0	21317	409.4	104.4
0	21318	409.4	103.4
0	21319	409.4	103.4
0	21320	409.4	102.4
0	21321	409.4	102.4
0	22881	409.5	101.5
0	22882	409.5	101.5
0	23536	410.5	101.5
0	23537	410.5	101.5
0	23576	411.5	101.5
0	23577	411.5	101.5
0	23616	412.5	101.5
0	23617	412.5	101.5
0	23656	413.5	101.5
0	23657	413.5	101.5
0	23696	414.5	101.5
0	23697	414.5	101.5
0	23736	415.5	101.5
0	23737	415.5	101.5
0	23776	416.5	101.5
0	23777	416.5	101.5
0	23816	417.5	101.5
0	23817	417.5	101.5
0	23856	418.5	101.5
0	23857	418.5	101.5
0	23896	419.5	101.5
0	23897	419.5	101.5
0	23936	420.5	101.5
0	23937	420.5	101.5
0	23976	421.5	101.5
0	23977	421.5	101.5
0	24016	422.5	101.5
0	24017	422.5	101.5
0	24056	423.5	101.5
0	24057	423.5	101.5
0	24096	424.5	101.5
0	24097	424.5	101.5
0	24136	425.5	101.5
0	24137	425.5	101.5
0	24176	426.5	101.5
0	24177	426.5	101.5
0	24216	427.5	101.5
0	24217	427.5	101.5
0	24256	428.5	101.5
0	24257	428.5	101.5
0	24296	429.5	101.5
0	24297	429.5	101.5
0	24336	430.5	101.5
0	24337	430.5	101.5
0	24376	431.5	101.5
0	24377	431.5	101.5
0	24416	432.5	101.5
0	24417	432.5	101.5
0	24456	433.5	101.5
0	24457	433.5	101.5
0	24496	434.5	101.5
0	24497	434.5	101.5
0	24536	435.5	101.5
0	24537	435.5	101.5
0	24576	436.5	101.5
0	24577	436.5	101.5
0	24616	437.5	101.5
0	24617	437.5	101.5
0	24656	438.5	101.5
0	24657	438.5	101.5
0	24696	439.5	101.5
0	24697	439.5	101.5
0	24736	440.5	101.5
0	24737	440.5	101.5
0	24776	441.5	101.5
0	24777	441.5	101.5
0	24816	442.5	101.5
0	24817	442.5	101.5
0	24856	443.5	101.5
0	24857	443.5	101.5
0	24893	444.5	101.5
0	24894	444.5	101.5
0	24930	445.5	101.5
0	24931	445.5	101.5
0	24951	446.5	101.5
0	31011	509.4	318.4
0	31012	509.4	317.4
0	31013	509.4	316.4
0	31014	509.4	315.4
0	31015	509.4	314.4
0	31016	509.4	313.4
0	31017	509.4	312.4
0	31018	509.4	311.4
0	31019	509.4	310.4
0	31020	509.4	309.4
0	31021	509.4	308.4
0	31022	509.4	307.4
0	31023	509.4	306.4
0	31024	509.4	305.4
0	31025	509.4	304.4
0	31026	509.4	303.4
0	31027	509.4	302.4
0	31028	509.4	301.4
0	31029	509.4	300.4
0	31030	509.4	299.4
0	31031	509.4	298.4
0	31032	509.4	297.4
0	31033	509.4	296.4
0	31034	509.4	295.4
0	31035	509.4	294.4
0	31036	509.4	293.4
0	31037	509.4	292.4
0	31038	509.4	291.4
0	31039	509.4	290.4
0	31040	509.4	289.4
0	31041	509.4	288.4
0	31042	509.4	287.4
0	31043	509.4	286.4
0	31044	509.4	285.4
0	31045	509.4	284.4
0	31046	509.4	283.4
0	31047	509.4	282.4
0	31048	509.4	281.4
0	31049	509.4	280.4
0	31050	509.4	279.4
0	31051	509.4	278.4
0	31052	509.4	277.4
0	31053	509.4	276.4
0	31054	509.4	275.4
0	31055	509.4	274.4
0	31056	509.4	273.4
0	31057	509.4	272.4
0	31058	509.4	271.4
0	31059	509.4	270.4
0	31060	509.4	269.4
0	31061	509.4	268.4
0	31062	509.4	267.4
0	31063	509.4	266.4
0	31064	509.4	265.4
0	31065	509.4	264.4
0	31066	509.4	263.4
0	31067	509.4	262.4
0	31068	509.4	261.4
0	31069	509.4	260.4
0	31070	509.4	259.4
0	31071	509.4	258.4
0	31072	509.4	257.4
0	31073	509.4	256.4
0	31074	509.4	255.4
0	31075	509.4	254.4
0	31076	509.4	253.4
0	31077	509.4	252.4
0	31078	509.4	251.4
0	31079	509.4	250.4
0	31080	509.4	249.4
0	31081	509.4	248.4
0	31082	509.4	247.4
0	31083	509.4	246.4
0	31084	509.4	245.4
0	31085	509.4	244.4
0	31086	509.4	243.4
0	31087	509.4	242.4
0	31088	509.4	241.4
0	31089	509.4	240.4
0	31090	509.4	239.4
0	31091	509.4	238.4
0	31092	509.4	237.4
0	31093	509.4	236.4
0	31094	509.4	235.4
0	31095	509.4	234.4
0	31096	509.4	233.4
0	31097	509.4	232.4
0	31098	509.4	231.4
0	31099	509.4	230.4
0	31100	509.4	229.4
0	31101	509.4	228.4
0	31102	509.4	227.4
0	31103	509.4	226.4
0	31104	509.4	225.4
0	31105	509.4	224.4
0	31106	509.4	223.4
0	31107	509.4	222.4
0	31108	509.4	221.4
0	31109	509.4	220.4
0	31110	509.4	219.4
0	31111	509.4	218.4
0	31112	509.4	217.4
0	31113	509.4	216.4
0	31114	509.4	215.4
0	31115	509.4	214.4
0	31116	509.4	213.4
0	31117	509.4	212.4
0	31118	509.4	211.4
0	31119	509.4	210.4
0	31120	509.4	209.4
0	31121	509.4	208.4
0	31122	509.4	207.4
0	31123	509.4	509.4
0	31124	509.4	508.4
0	31125	509.4	507.4
0	31126	509.4	506.4
0	31127	509.4	505.4
0	31128	509.4	504.4
0	31129	509.4	503.4
0	31130	509.4	502.4
0	31131	509.4	501.4
0	31132	509.4	500.4
0	31133	509.4	499.4
0	31134	509.4	498.4
0	31135	509.4	497.4
0	31136	509.4	496.4
0	31137	509.4	495.4
0	31138	509.4	494.4
0	31139	509.4	493.4
0	31140	509.4	492.4
0	31141	509.4	491.4
0	31142	509.4	490.4
0	31143	509.4	489.4
0	31144	509.4	488.4
0	31145	509.4	487.4
0	31146	509.4	486.4
0	31147	509.4	485.4
0	31148	509.4	484.4
0	31149	509.4	483.4
0	31150	509.4	482.4
0	31151	509.4	481.4
0	31152	509.4	480.4
0	31153	509.4	479.4
0	31154	509.4	478.4
0	31155	509.4	477.4
0	31156	509.4	476.4
0	31157	509.4	475.4
0	31158	509.4	474.4
0	31159	509.4	473.4
0	31160	509.4	472.4
0	31161	509.4	471.4
0	31162	509.4	470.4
0	31163	509.4	469.4
0	31164	509.4	468.4
0	31165	509.4	467.4
0	31166	509.4	466.4
0	31167	509.4	465.4
0	31168	509.4	464.4
0	31169	509.4	463.4
0	31170	509.4	462.4
0	31171	509.4	461.4
0	31172	509.4	460.4
0	31173	509.4	459.4
0	31174	509.4	458.4
0	31175	509.4	457.4
0	31176	509.4	456.4
0	31177	509.4	455.4
0	31178	509.4	454.4
0	31179	509.4	453.4
0	31180	509.4	452.4
0	31181	509.4	451.4
0	31182	509.4	450.4
0	31183	509.4	449.4
0	31184	509.4	448.4
0	31185	509.4	447.4
0	31186	509.4	446.4
0	31187	509.4	445.4
0	31188	509.4	444.4
0	31189	509.4	443.4
0	31190	509.4	442.4
0	31191	509.4	441.4
0	31192	509.4	440.4
0	31193	509.4	439.4
0	31194	509.4	438.4
0	31195	509.4	437.4
0	31196	509.4	436.4
0	31197	509.4	435.4
0	31198	509.4	434.4
0	31199	509.4	433.4
0	31200	509.4	432.4
0	31201	509.4	431.4
0	31202	509.4	430.4
0	31203	509.4	429.4
0	31204	509.4	428.4
0	31205	509.4	427.4
0	31206	509.4	426.4
0	31207	509.4	425.4
0	31208	509.4	424.4
0	31209	509.4	423.4
0	31210	509.4	422.4
0	31211	509.4	421.4
0	31212	509.4	420.4
0	31213	509.4	419.4
0	31214	509.4	418.4
0	31215	509.4	417.4
0	31216	509.4	416.4
0	31217	509.4	415.4
0	31218	509.4	414.4
0	31219	509.4	413.4
0	31220	509.4	412.4
0	31221	509.4	411.4
0	31222	509.4	410.4
0	31223	509.4	409.4
0	31224	509.4	408.4
0	31225	509.4	407.4
0	31226	509.4	406.4
0	31227	509.4	405.4
0	31228	509.4	404.4
0	31229	509.4	403.4
0	31230	509.4	402.4
0	31231	509.4	401.4
0	31232	509.4	400.4
0	31233	509.4	399.4
0	31234	509.4	398.4
0	31235	509.4	397.4
0	31236	509.4	396.4
0	31237	509.4	395.4
0	31238	509.4	394.4
0	31239	509.4	393.4
0	31240	509.4	392.4
0	31241	509.4	391.4
0	31242	509.4	390.4
0	31243	509.4	389.4
0	31244	509.4	388.4
0	31245	509.4	387.4
0	31246	509.4	386.4
0	31247	509.4	385.4
0	31248	509.4	384.4
0	31249	509.4	383.4
0	31250	509.4	382.4
0	31251	509.4	381.4
0	31252	509.4	380.4
0	31253	509.4	379.4
0	31254	509.4	378.4
0	31255	509.4	377.4
0	31256	509.4	376.4
0	31257	509.4	375.4
0	31258	509.4	374.4
0	31259	509.4	373.4
0	31260	509.4	372.4
0	31261	509.4	371.4
0	31262	509.4	370.4
0	31263	509.4	369.4
0	31264	509.4	368.4
0	31265	509.4	367.4
0	31266	509.4	366.4
0	31267	509.4	365.4
0	31268	509.4	364.4
0	31269	509.4	363.4
0	31270	509.4	362.4
0	31271	509.4	361.4
0	31272	509.4	360.4
0	31273	509.4	359.4
0	31274	509.4	358.4
0	31275	509.4	357.4
0	31276	509.4	356.4
0	31277	509.4	355.4
0	31278	509.4	354.4
0	31279	509.4	353.4
0	31280	509.4	352.4
0	31281	509.4	351.4
0	31282	509.4	350.4
0	31283	509.4	349.4
0	31284	509.4	348.4
0	31285	509.4	347.4
0	31286	509.4	346.4
0	31287	509.4	345.4
0	31288	509.4	344.4
0	31289	509.4	343.4
0	31290	509.4	342.4
0	31291	509.4	341.4
0	31292	509.4	340.4
0	31293	509.4	339.4
0	31294	509.4	338.4
0	31295	509.4	337.4
0	31296	509.4	336.4
0	31297	509.4	335.4
0	31298	509.4	334.4
0	31299	509.4	333.4
0	31300	509.4	332.4
0	31301	509.4	331.4
0	31302	509.4	330.4
0	31303	509.4	329.4
0	31304	509.4	328.4
0	31305	509.4	327.4
0	31306	509.4	326.4
0	31307	509.4	325.4
0	31308	509.4	324.4
0	31309	509.4	323.4
0	31310	509.4	322.4
0	31311	509.4	321.4
0	31312	509.4	320.4
0	31313	509.4	319.4
0	31314	509.4	206.4
0	31315	509.4	205.4
0	31316	509.4	204.4
0	31317	509.4	203.4
0	31318	509.4	202.4
0	31330	509.5	201.5
0	31347	510.5	201.5
0	31364	511.5	201.5
0	31381	512.5	201.5
0	31398	513.5	201.5
0	31415	514.5	201.5
0	31432	515.5	201.5
0	31449	516.5	201.5
0	31466	517.5	201.5
0	31483	518.5	201.5
0	31500	519.5	201.5
0	31517	520.5	201.5
0	31534	521.5	201.5
0	31551	522.5	201.5
0	31568	523.5	201.5
0	31585	524.5	201.5
0	31602	525.5	201.5
0	31619	526.5	201.5
0	31636	527.5	201.5
0	31653	528.5	201.5
0	31670	529.5	201.5
0	31687	530.5	201.5
0	31705	531.5	201.5
0	31722	532.5	201.5
0	31739	533.5	201.5
0	31756	534.5	201.5
0	31773	535.5	201.5
0	31790	536.5	201.5
0	31807	537.5	201.5
0	31824	538.5	201.5
0	31841	539.5	201.5
0	31858	540.5	201.5
0	31875	541.5	201.5
0	31892	542.5	201.5
0	31909	543.5	201.5
0	31926	544.5	201.5
0	31943	545.5	201.5
0	35292	609.4	418.4
0	35293	609.4	417.4
0	35294	609.4	416.4
0	35295	609.4	415.4
0	35296	609.4	414.4
0	35297	609.4	413.4
0	35298	609.4	412.4
0	35299	609.4	411.4
0	35300	609.4	410.4
0	35301	609.4	409.4
0	35302	609.4	408.4
0	35303	609.4	407.4
0	35304	609.4	406.4
0	35305	609.4	405.4
0	35306	609.4	404.4
0	35307	609.4	403.4
0	35308	609.4	402.4
0	35309	609.4	401.4
0	35310	609.4	400.4
0	35311	609.4	399.4
0	35312	609.4	398.4
0	35313	609.4	397.4
0	35314	609.4	396.4
0	35315	609.4	395.4
0	35316	609.4	394.4
0	35317	609.4	393.4
0	35318	609.4	392.4
0	35319	609.4	391.4
0	35320	609.4	390.4
0	35321	609.4	389.4
0	35322	609.4	388.4
0	35323	609.4	387.4
0	35324	609.4	386.4
0	35325	609.4	385.4
0	35326	609.4	384.4
0	35327	609.4	383.4
0	35328	609.4	382.4
0	35329	609.4	381.4
0	35330	609.4	380.4
0	35331	609.4	379.4
0	35332	609.4	378.4
0	35333	609.4	377.4
0	35334	609.4	376.4
0	35335	609.4	375.4
0	35336	609.4	374.4
0	35337	609.4	373.4
0	35338	609.4	372.4
0	35339	609.4	371.4
0	35340	609.4	370.4
0	35341	609.4	369.4
0	35342	609.4	368.4
0	35343	609.4	367.4
0	35344	609.4	366.4
0	35345	609.4	365.4
0	35346	609.4	364.4
0	35347	609.4	363.4
0	35348	609.4	362.4
0	35349	609.4	361.4
0	35350	609.4	360.4
0	35351	609.4	359.4
0	35352	609.4	358.4
0	35353	609.4	357.4
0	35354	609.4	356.4
0	35355	609.4	355.4
0	35356	609.4	354.4
0	35357	609.4	353.4
0	35358	609.4	352.4
0	35359	609.4	351.4
0	35360	609.4	350.4
0	35361	609.4	349.4
0	35362	609.4	348.4
0	35363	609.4	347.4
0	35364	609.4	346.4
0	35365	609.4	345.4
0	35366	609.4	344.4
0	35367	609.4	343.4
0	35368	609.4	342.4
0	35369	609.4	341.4
0	35370	609.4	340.4
0	35371	609.4	339.4
0	35372	609.4	338.4
0	35373	609.4	337.4
0	35374	609.4	336.4
0	35375	609.4	335.4
0	35376	609.4	334.4
0	35377	609.4	333.4
0	35378	609.4	332.4
0	35379	609.4	331.4
0	35380	609.4	330.4
0	35381	609.4	329.4
0	35382	609.4	328.4
0	35383	609.4	327.4
0	35384	609.4	326.4
0	35385	609.4	325.4
0	35386	609.4	324.4
0	35387	609.4	323.4
0	35388	609.4	322.4
0	35389	609.4	321.4
0	35390	609.4	320.4
0	35391	609.4	319.4
0	35392	609.4	318.4
0	35393	609.4	317.4
0	35394	609.4	316.4
0	35395	609.4	315.4
0	35396	609.4	314.4
0	35397	609.4	313.4
0	35398	609.4	312.4
0	35399	609.4	311.4
0	35400	609.4	310.4
0	35401	609.4	309.4
0	35402	609.4	308.4
0	35403	609.4	307.4
0	35404	609.4	609.4
0	35405	609.4	608.4
0	35406	609.4	607.4
0	35407	609.4	606.4
0	35408	609.4	605.4
0	35409	609.4	604.4
0	35410	609.4	603.4
0	35411	609.4	602.4
0	35412	609.4	601.4
0	35413	609.4	600.4
0	35414	609.4	599.4
0	35415	609.4	598.4
0	35416	609.4	597.4
0	35417	609.4	596.4
0	35418	609.4	595.4
0	35419	609.4	594.4
0	35420	609.4	593.4
0	35421	609.4	592.4
0	35422	609.4	591.4
0	35423	609.4	590.4
0	35424	609.4	589.4
0	35425	609.4	588.4
0	35426	609.4	587.4
0	35427	609.4	586.4
0	35428	609.4	585.4
0	35429	609.4	584.4
0	35430	609.4	583.4
0	35431	609.4	582.4
0	35432	609.4	581.4
0	35433	609.4	580.4
0	35434	609.4	579.4
0	35435	609.4	578.4
0	35436	609.4	577.4
0	35437	609.4	576.4
0	35438	609.4	575.4
0	35439	609.4	574.4
0	35440	609.4	573.4
0	35441	609.4	572.4
0	35442	609.4	571.4
0	35443	609.4	570.4
0	35444	609.4	569.4
0	35445	609.4	568.4
0	35446	609.4	567.4
0	35447	609.4	566.4
0	35448	609.4	565.4
0	35449	609.4	564.4
0	35450	609.4	563.4
0	35451	609.4	562.4
0	35452	609.4	561.4
0	35453	609.4	560.4
0	35454	609.4	559.4
0	35455	609.4	558.4
0	35456	609.4	557.4
0	35457	609.4	556.4
0	35458	609.4	555.4
0	35459	609.4	554.4
0	35460	609.4	553.4
0	35461	609.4	552.4
0	35462	609.4	551.4
0	35463	609.4	550.4
0	35464	609.4	549.4
0	35465	609.4	548.4
0	35466	609.4	547.4
0	35467	609.4	546.4
0	35468	609.4	545.4
0	35469	609.4	544.4
0	35470	609.4	543.4
0	35471	609.4	542.4
0	35472	609.4	541.4
0	35473	609.4	540.4
0	35474	609.4	539.4
0	35475	609.4	538.4
0	35476	609.4	537.4
0	35477	609.4	536.4
0	35478	609.4	535.4
0	35479	609.4	534.4
0	35480	609.4	533.4
0	35481	609.4	532.4
0	35482	609.4	531.4
0	35483	609.4	530.4
0	35484	609.4	529.4
0	35485	609.4	528.4
0	35486	609.4	527.4
0	35487	609.4	526.4
0	35488	609.4	525.4
0	35489	609.4	524.4
0	35490	609.4	523.4
0	35491	609.4	522.4
0	35492	609.4	521.4
0	35493	609.4	520.4
0	35494	609.4	519.4
0	35495	609.4	518.4
0	35496	609.4	517.4
0	35497	609.4	516.4
0	35498	609.4	515.4
0	35499	609.4	514.4
0	35500	609.4	513.4
0	35501	609.4	512.4
0	35502	609.4	511.4
0	35503	609.4	510.4
0	35504	609.4	509.4
0	35505	609.4	508.4
0	35506	609.4	507.4
0	35507	609.4	506.4
0	35508	609.4	505.4
0	35509	609.4	504.4
0	35510	609.4	503.4
0	35511	609.4	502.4
0	35512	609.4	501.4
0	35513	609.4	500.4
0	35514	609.4	499.4
0	35515	609.4	498.4
0	35516	609.4	497.4
0	35517	609.4	496.4
0	35518	609.4	495.4
0	35519	609.4	494.4
0	35520	609.4	493.4
0	35521	609.4	492.4
0	35522	609.4	491.4
0	35523	609.4	490.4
0	35524	609.4	489.4
0	35525	609.4	488.4
0	35526	609.4	487.4
0	35527	609.4	486.4
0	35528	609.4	485.4
0	35529	609.4	484.4
0	35530	609.4	483.4
0	35531	609.4	482.4
0	35532	609.4	481.4
0	35533	609.4	480.4
0	35534	609.4	479.4
0	35535	609.4	478.4
0	35536	609.4	477.4
0	35537	609.4	476.4
0	35538	609.4	475.4
0	35539	609.4	474.4
0	35540	609.4	473.4
0	35541	609.4	472.4
0	35542	609.4	471.4
0	35543	609.4	470.4
0	35544	609.4	469.4
0	35545	609.4	468.4
0	35546	609.4	467.4
0	35547	609.4	466.4
0	35548	609.4	465.4
0	35549	609.4	464.4
0	35550	609.4	463.4
0	35551	609.4	462.4
0	35552	609.4	461.4
0	35553	609.4	460.4
0	35554	609.4	459.4
0	35555	609.4	458.4
0	35556	609.4	457.4
0	35557	609.4	456.4
0	35558	609.4	455.4
0	35559	609.4	454.4
0	35560	609.4	453.4
0	35561	609.4	452.4
0	35562	609.4	451.4
0	35563	609.4	450.4
0	35564	609.4	449.4
0	35565	609.4	448.4
0	35566	609.4	447.4
0	35567	609.4	446.4
0	35568	609.4	445.4
0	35569	609.4	444.4
0	35570	609.4	443.4
0	35571	609.4	442.4
0	35572	609.4	441.4
0	35573	609.4	440.4
0	35574	609.4	439.4
0	35575	609.4	438.4
0	35576	609.4	437.4
0	35577	609.4	436.4
0	35578	609.4	435.4
0	35579	609.4	434.4
0	35580	609.4	433.4
0	35581	609.4	432.4
0	35582	609.4	431.4
0	35583	609.4	430.4
0	35584	609.4	429.4
0	35585	609.4	428.4
0	35586	609.4	427.4
0	35587	609.4	426.4
0	35588	609.4	425.4
0	35589	609.4	424.4
0	35590	609.4	423.4
0	35591	609.4	422.4
0	35592	609.4	421.4
0	35593	609.4	420.4
0	35594	609.4	419.4
0	35595	609.4	306.4
0	35596	609.4	305.4
0	35597	609.4	304.4
0	35598	609.4	303.4
0	35599	609.4	302.4
0	35611	609.5	301.5
0	35632	610.5	301.5
0	35653	611.5	301.5
0	35674	612.5	301.5
0	35695	613.5	301.5
0	35716	614.5	301.5
0	35737	615.5	301.5
0	35758	616.5	301.5
0	35779	617.5	301.5
0	35800	618.5	301.5
0	35823	619.5	301.5
0	35844	620.5	301.5
0	35865	621.5	301.5
0	35886	622.5	301.5
0	35907	623.5	301.5
0	35923	624.5	301.5
0	35938	625.5	301.5
0	35953	626.5	301.5
0	35968	627.5	301.5
0	35983	628.5	301.5
0	35998	629.5	301.5
0	36013	630.5	301.5
0	36028	631.5	301.5
0	36043	632.5	301.5
0	36058	633.5	301.5
0	36073	634.5	301.5
0	36088	635.5	301.5
0	36103	636.5	301.5
0	36118	637.5	301.5
0	36133	638.5	301.5
0	36148	639.5	301.5
0	36163	640.5	301.5
0	36178	641.5	301.5
0	36193	642.5	301.5
0	36208	643.5	301.5
0	36223	644.5	301.5
0	36238	645.5	301.5
0	38500	709.4	518.4
0	38501	709.4	517.4
0	38502	709.4	516.4
0	38503	709.4	515.4
0	38504	709.4	514.4
0	38505	709.4	513.4
0	38506	709.4	512.4
0	38507	709.4	511.4
0	38508	709.4	510.4
0	38509	709.4	509.4
0	38510	709.4	508.4
0	38511	709.4	507.4
0	38512	709.4	506.4
0	38513	709.4	505.4
0	38514	709.4	504.4
0	38515	709.4	503.4
0	38516	709.4	502.4
0	38517	709.4	501.4
0	38518	709.4	500.4
0	38519	709.4	499.4
0	38520	709.4	498.4
0	38521	709.4	497.4
0	38522	709.4	496.4
0	38523	709.4	495.4
0	38524	709.4	494.4
0	38525	709.4	493.4
0	38526	709.4	492.4
0	38527	709.4	491.4
0	38528	709.4	490.4
0	38529	709.4	489.4
0	38530	709.4	488.4
0	38531	709.4	487.4
0	38532	709.4	486.4
0	38533	709.4	485.4
0	38534	709.4	484.4
0	38535	709.4	483.4
0	38536	709.4	482.4
0	38537	709.4	481.4
0	38538	709.4	480.4
0	38539	709.4	479.4
0	38540	709.4	478.4
0	38541	709.4	477.4
0	38542	709.4	476.4
0	38543	709.4	475.4
0	38544	709.4	474.4
0	38545	709.4	473.4
0	38546	709.4	472.4
0	38547	709.4	471.4
0	38548	709.4	470.4
0	38549	709.4	469.4
0	38550	709.4	468.4
0	38551	709.4	467.4
0	38552	709.4	466.4
0	38553	709.4	465.4
0	38554	709.4	464.4
0	38555	709.4	463.4
0	38556	709.4	462.4
0	38557	709.4	461.4
0	38558	709.4	460.4
0	38559	709.4	459.4
0	38560	709.4	458.4
0	38561	709.4	457.4
0	38562	709.4	456.4
0	38563	709.4	455.4
0	38564	709.4	454.4
0	38565	709.4	453.4
0	38566	709.4	452.4
0	38567	709.4	451.4
0	38568	709.4	450.4
0	38569	709.4	449.4
0	38570	709.4	448.4
0	38571	709.4	447.4
0	38572	709.4	446.4
0	38573	709.4	445.4
0	38574	709.4	444.4
0	38575	709.4	443.4
0	38576	709.4	442.4
0	38577	709.4	441.4
0	38578	709.4	440.4
0	38579	709.4	439.4
0	38580	709.4	438.4
0	38581	709.4	437.4
0	38582	709.4	436.4
0	38583	709.4	435.4
0	38584	709.4	434.4
0	38585	709.4	433.4
0	38586	709.4	432.4
0	38587	709.4	431.4
0	38588	709.4	430.4
0	38589	709.4	429.4
0	38590	709.4	428.4
0	38591	709.4	427.4
0	38592	709.4	426.4
0	38593	709.4	425.4
0	38594	709.4	424.4
0	38595	709.4	423.4
0	38596	709.4	422.4
0	38597	709.4	421.4
0	38598	709.4	420.4
0	38599	709.4	419.4
0	38600	709.4	418.4
0	38601	709.4	417.4
0	38602	709.4	416.4
0	38603	709.4	415.4
0	38604	709.4	414.4
0	38605	709.4	413.4
0	38606	709.4	412.4
0	38607	709.4	411.4
0	38608	709.4	410.4
0	38609	709.4	409.4
0	38610	709.4	408.4
0	38611	709.4	407.4
0	38612	709.4	709.4
0	38613	709.4	708.4
0	38614	709.4	707.4
0	38615	709.4	706.4
0	38616	709.4	705.4
0	38617	709.4	704.4
0	38618	709.4	703.4
0	38619	709.4	702.4
0	38620	709.4	701.4
0	38621	709.4	700.4
0	38622	709.4	699.4
0	38623	709.4	698.4
0	38624	709.4	697.4
0	38625	709.4	696.4
0	38626	709.4	695.4
0	38627	709.4	694.4
0	38628	709.4	693.4
0	38629	709.4	692.4
0	38630	709.4	691.4
0	38631	709.4	690.4
0	38632	709.4	689.4
0	38633	709.4	688.4
0	38634	709.4	687.4
0	38635	709.4	686.4
0	38636	709.4	685.4
0	38637	709.4	684.4
0	38638	709.4	683.4
0	38639	709.4	682.4
0	38640	709.4	681.4
0	38641	709.4	680.4
0	38642	709.4	679.4
0	38643	709.4	678.4
0	38644	709.4	677.4
0	38645	709.4	676.4
0	38646	709.4	675.4
0	38647	709.4	674.4
0	38648	709.4	673.4
0	38649	709.4	672.4
0	38650	709.4	671.4
0	38651	709.4	670.4
0	38652	709.4	669.4
0	38653	709.4	668.4
0	38654	709.4	667.4
0	38655	709.4	666.4
0	38656	709.4	665.4
0	38657	709.4	664.4
0	38658	709.4	663.4
0	38659	709.4	662.4
0	38660	709.4	661.4
0	38661	709.4	660.4
0	38662	709.4	659.4
0	38663	709.4	658.4
0	38664	709.4	657.4
0	38665	709.4	656.4
0	38666	709.4	655.4
0	38667	709.4	654.4
0	38668	709.4	653.4
0	38669	709.4	652.4
0	38670	709.4	651.4
0	38671	709.4	650.4
0	38672	709.4	649.4
0	38673	709.4	648.4
0	38674	709.4	647.4
0	38675	709.4	646.4
0	38676	709.4	645.4
0	38677	709.4	644.4
0	38678	709.4	643.4
0	38679	709.4	642.4
0	38680	709.4	641.4
0	38681	709.4	640.4
0	38682	709.4	639.4
0	38683	709.4	638.4
0	38684	709.4	637.4
0	38685	709.4	636.4
0	38686	709.4	635.4
0	38687	709.4	634.4
0	38688	709.4	633.4
0	38689	709.4	632.4
0	38690	709.4	631.4
0	38691	709.4	630.4
0	38692	709.4	629.4
0	38693	709.4	628.4
0	38694	709.4	627.4
0	38695	709.4	626.4
0	38696	709.4	625.4
0	38697	709.4	624.4
0	38698	709.4	623.4
0	38699	709.4	622.4
0	38700	709.4	621.4
0	38701	709.4	620.4
0	38702	709.4	619.4
0	38703	709.4	618.4
0	38704	709.4	617.4
0	38705	709.4	616.4
0	38706	709.4	615.4
0	38707	709.4	614.4
0	38708	709.4	613.4
0	38709	709.4	612.4
0	38710	709.4	611.4
0	38711	709.4	610.4
0	38712	709.4	609.4
0	38713	709.4	608.4
0	38714	709.4	607.4
0	38715	709.4	606.4
0	38716	709.4	605.4
0	38717	709.4	604.4
0	38718	709.4	603.4
0	38719	709.4	602.4
0	38720	709.4	601.4
0	38721	709.4	600.4
0	38722	709.4	599.4
0	38723	709.4	598.4
0	38724	709.4	597.4
0	38725	709.4	596.4
0	38726	709.4	595.4
0	38727	709.4	594.4
0	38728	709.4	593.4
0	38729	709.4	592.4
0	38730	709.4	591.4
0	38731	709.4	590.4
0	38732	709.4	589.4
0	38733	709.4	588.4
0	38734	709.4	587.4
0	38735	709.4	586.4
0	38736	709.4	585.4
0	38737	709.4	584.4
0	38738	709.4	583.4
0	38739	709.4	582.4
0	38740	709.4	581.4
0	38741	709.4	580.4
0	38742	709.4	579.4
0	38743	709.4	578.4
0	38744	709.4	577.4
0	38745	709.4	576.4
0	38746	709.4	575.4
0	38747	709.4	574.4
0	38748	709.4	573.4
0	38749	709.4	572.4
0	38750	709.4	571.4
0	38751	709.4	570.4
0	38752	709.4	569.4
0	38753	709.4	568.4
0	38754	709.4	567.4
0	38755	709.4	566.4
0	38756	709.4	565.4
0	38757	709.4	564.4
0	38758	709.4	563.4
0	38759	709.4	562.4
0	38760	709.4	561.4
0	38761	709.4	560.4
0	38762	709.4	559.4
0	38763	709.4	558.4
0	38764	709.4	557.4
0	38765	709.4	556.4
0	38766	709.4	555.4
0	38767	709.4	554.4
0	38768	709.4	553.4
0	38769	709.4	552.4
0	38770	709.4	551.4
0	38771	709.4	550.4
0	38772	709.4	549.4
0	38773	709.4	548.4
0	38774	709.4	547.4
0	38775	709.4	546.4
0	38776	709.4	545.4
0	38777	709.4	544.4
0	38778	709.4	543.4
0	38779	709.4	542.4
0	38780	709.4	541.4
0	38781	709.4	540.4
0	38782	709.4	539.4
0	38783	709.4	538.4
0	38784	709.4	537.4
0	38785	709.4	536.4
0	38786	709.4	535.4
0	38787	709.4	534.4
0	38788	709.4	533.4
0	38789	709.4	532.4
0	38790	709.4	531.4
0	38791	709.4	530.4
0	38792	709.4	529.4
0	38793	709.4	528.4
0	38794	709.4	527.4
0	38795	709.4	526.4
0	38796	709.4	525.4
0	38797	709.4	524.4
0	38798	709.4	523.4
0	38799	709.4	522.4
0	38800	709.4	521.4
0	38801	709.4	520.4
0	38802	709.4	519.4
0	38803	709.4	406.4
0	38804	709.4	405.4
0	38805	709.4	404.4
0	38806	709.4	403.4
0	38807	709.4	402.4
0	40360	709.5	401.5
0	40382	710.5	401.5
0	40404	711.5	401.5
0	40426	712.5	401.5
0	40448	713.5	401.5
0	40471	714.5	401.5
0	40493	715.5	401.5
0	40515	716.5	401.5
0	40537	717.5	401.5
0	40559	718.5	401.5
0	40581	719.5	401.5
0	40603	720.5	401.5
0	40625	721.5	401.5
0	40647	722.5	401.5
0	40669	723.5	401.5
0	40690	724.5	401.5
0	40711	725.5	401.5
0	40732	726.5	401.5
0	40753	727.5	401.5
0	40774	728.5	401.5
0	40795	729.5	401.5
0	40816	730.5	401.5
0	40837	731.5	401.5
0	40859	732.5	401.5
0	40880	733.5	401.5
0	40901	734.5	401.5
0	40922	735.5	401.5
0	40942	736.5	401.5
0	40962	737.5	401.5
0	40982	738.5	401.5
0	41002	739.5	401.5
0	41022	740.5	401.5
0	41042	741.5	401.5
0	41062	742.5	401.5
0	41081	743.5	401.5
0	41101	744.5	401.5
0	41120	745.5	401.5


