file 133303 1736665922                                          
version 2
run General-0-20250112-07:03:35-75092
attr configname General
attr datetime 20250112-07:03:35
attr experiment General
attr inifile shaw.ini
attr iterationvars ""
attr iterationvarsf ""
attr measurement ""
attr network src.dtnsim
attr processid 75092
attr repetition 0
attr replication #0
attr resultdir results
attr runnumber 0
attr seedset 0
param dtnsim.central.contactsFile "\"contactPlan/shaw_contact1.txt\""
param dtnsim.central.contactIdsToDelete_from_celestialA "\"11 22 28 30 32 37 54 60 61 79 85 92 97 110 120 124 130 145 148 157 164 168 184 185 186 207 211 212 229 232 248 255 257 266 267 274 283 285 310 317 319 321 325 328 337 342 345 374 377 387 395 405 407 412 421 426 428 436 438 452 454 473 474 480 502 504 512 540 545 547 549 554 557 570 575 585 588 590 601 602 606 641 642 646 647 657 661 662 673 689 691 693 715 728 735 737 743 745 750 759 763 770 773 786 787 796 802 803 809 811 813 817 827 829 837 842 846 854 861 871 880 885 898 906 909 911 944 947 991 996 998\""
param dtnsim.central.contactIdsToDelete_from_celestialB "\"4 12 18 25 29 40 41 44 45 49 53 55 58 66 71 73 78 84 89 91 114 116 122 133 143 171 190 193 195 201 208 214 217 218 224 227 233 238 250 253 258 263 264 265 268 276 280 287 295 297 299 306 320 326 333 338 340 346 347 355 361 362 367 378 385 394 396 430 433 435 442 446 448 451 460 466 467 471 481 488 490 495 500 503 506 509 511 513 527 528 530 538 542 546 562 566 568 571 573 574 584 589 594 600 605 616 617 620 627 629 630 633 643 658 671 681 688 708 710 712 717 725 736 739 751 758 761 772 779 781 784 791 792 798 804 805 808 814 825 828 830 839 844 853 858 866 868 869 884 886 892 894 895 897 899 913 922 929 930 931 936 943 948 952 978 985 997 999 1000\""
param dtnsim.central.celestialA_nodes "\"1 2 3\""
param dtnsim.central.celestialB_nodes "\"4 5 6\""
param dtnsim.central.locallyfaultsAware false
param dtnsim.central.mode_two_celestial true
param dtnsim.nodesNumber 6
param dtnsim.node[1].icon "\"receiverdish\""
param dtnsim.node[2..5].icon "\"satellite\""
param dtnsim.node[6].icon "\"receiverdish\""
param dtnsim.node[*].dtn.routing "\"cgrModel350\""
param dtnsim.node[*].dtn.routingType "\"routeListType:allPaths-firstEnding,volumeAware:allContacts,extensionBlock:on,contactPlan:global\""
param dtnsim.node[1].app.enable true
param dtnsim.node[*].app.custodyTransfer true
param dtnsim.node[1].app.bundlesNumber "\"5000\""
param dtnsim.node[1].app.start "\"0\""
param dtnsim.node[1].app.destinationEid "\"6\""
param dtnsim.node[1].app.size "\"1500\""
param dtnsim.node[1].app.interval 0.2

vector 0 dtnsim.node[6].app appBundleReceivedDelayvec:vector ETV
attr interpolationmode none
attr source appBundleReceivedDelay
attr title "appBundleReceivedDelayvec, vector"
0	2732 130570 2656 195621 92.1 993.3 6487 1.3 639.1 1140357.2 320936347.4


