version 2
run General-0-20250116-08:23:46-159536
attr configname General
attr datetime 20250116-08:23:46
attr experiment General
attr inifile shaw.ini
attr iterationvars ""
attr iterationvarsf ""
attr measurement ""
attr network src.dtnsim
attr processid 159536
attr repetition 0
attr replication #0
attr resultdir results
attr runnumber 0
attr seedset 0
param dtnsim.central.contactsFile "\"contactPlan/Contacts.txt\""
param dtnsim.central.contactsFile_A "\"contactPlan/Contacts.txt\""
param dtnsim.central.contactsFile_B "\"contactPlan/Contacts.txt\""
param dtnsim.central.contactIdsToDelete_from_celestialA "\"1 3 5 9 14 20 29 49 56 59 64 73 86 94 106 117 125 135 145 161 183 186 217 223 228 240 243 252 262 264 266 267 269 285 286 290 291 301 303 313 320 372 386 395 402 412 415 419 421 424 430 447\""
param dtnsim.central.contactIdsToDelete_from_celestialB "\"17 33 35 39 43 45 91 93 99 123 128 129 130 134 141 154 163 169 178 181 184 185 188 195 198 219 237 256 258 260 268 273 275 283 284 293 298 338 343 344 352 358 360 363 413 439 451 454\""
param dtnsim.central.celestialA_nodes "\"1 2 3\""
param dtnsim.central.celestialB_nodes "\"4 5 6\""
param dtnsim.central.locallyfaultsAware true
param dtnsim.central.mode_two_celestial true
param dtnsim.nodesNumber 6
param dtnsim.node[1].icon "\"receiverdish\""
param dtnsim.node[2..5].icon "\"satellite\""
param dtnsim.node[6].icon "\"receiverdish\""
param dtnsim.node[*].dtn.routing "\"cgrModel350\""
param dtnsim.node[*].dtn.routingType "\"routeListType:allPaths-firstEnding,volumeAware:allContacts,extensionBlock:on,contactPlan:global\""
param dtnsim.node[1].app.enable true
param dtnsim.node[1].app.bundlesNumber "\"8640\""
param dtnsim.node[1].app.start "\"0\""
param dtnsim.node[1].app.destinationEid "\"6\""
param dtnsim.node[1].app.size "\"1500\""
param dtnsim.node[1].app.interval 10

vector 0 dtnsim.node[6].app appBundleReceivedDelayvec:vector ETV
attr interpolationmode none
attr source appBundleReceivedDelay
attr title "appBundleReceivedDelayvec, vector"
0	5615	4210	4210
0	5626	4210	4200
0	5637	4210	4190
0	5644	4210	4180
0	5650	4210	4170
0	5656	4210	4160
0	5662	4210	4150
0	5668	4210	4140
0	5674	4210	4130
0	5680	4210	4120
0	5686	4210	4110
0	5692	4210	4100
0	5698	4210	4090
0	5704	4210	4080
0	5710	4210	4070
0	5716	4210	4060
0	5722	4210	4050
0	5728	4210	4040
0	5734	4210	4030
0	5740	4210	4020
0	5746	4210	4010
0	5752	4210	4000
0	5758	4210	3990
0	5764	4210	3980
0	5770	4210	3970
0	5776	4210	3960
0	5782	4210	3950
0	5788	4210	3940
0	5794	4210	3930
0	5800	4210	3920
0	5806	4210	3910
0	5812	4210	3900
0	5818	4210	3890
0	5824	4210	3880
0	5830	4210	3870
0	5836	4210	3860
0	5842	4210	3850
0	5848	4210	3840
0	5854	4210	3830
0	5860	4210	3820
0	5866	4210	3810
0	5872	4210	3800
0	5878	4210	3790
0	5884	4210	3780
0	5890	4210	3770
0	5896	4210	3760
0	5902	4210	3750
0	5908	4210	3740
0	5914	4210	3730
0	5920	4210	3720
0	5926	4210	3710
0	5932	4210	3700
0	5938	4210	3690
0	5944	4210	3680
0	5950	4210	3670
0	5956	4210	3660
0	5962	4210	3650
0	5968	4210	3640
0	5974	4210	3630
0	5980	4210	3620
0	5986	4210	3610
0	5992	4210	3600
0	5998	4210	3590
0	6004	4210	3580
0	6010	4210	3570
0	6016	4210	3560
0	6022	4210	3550
0	6028	4210	3540
0	6034	4210	3530
0	6040	4210	3520
0	6046	4210	3510
0	6052	4210	3500
0	6058	4210	3490
0	6064	4210	3480
0	6070	4210	3470
0	6076	4210	3460
0	6082	4210	3450
0	6088	4210	3440
0	6094	4210	3430
0	6100	4210	3420
0	6106	4210	3410
0	6112	4210	3400
0	6118	4210	3390
0	6124	4210	3380
0	6130	4210	3370
0	6136	4210	3360
0	6142	4210	3350
0	6148	4210	3340
0	6154	4210	3330
0	6160	4210	3320
0	6166	4210	3310
0	6172	4210	3300
0	6178	4210	3290
0	6184	4210	3280
0	6190	4210	3270
0	6196	4210	3260
0	6202	4210	3250
0	6208	4210	3240
0	6214	4210	3230
0	6220	4210	3220
0	6226	4210	3210
0	6232	4210	3200
0	6238	4210	3190
0	6244	4210	3180
0	6250	4210	3170
0	6256	4210	3160
0	6262	4210	3150
0	6268	4210	3140
0	6274	4210	3130
0	6280	4210	3120
0	6286	4210	3110
0	6292	4210	3100
0	6298	4210	3090
0	6304	4210	3080
0	6310	4210	3070
0	6316	4210	3060
0	6322	4210	3050
0	6328	4210	3040
0	6334	4210	3030
0	6340	4210	3020
0	6346	4210	3010
0	6352	4210	3000
0	6358	4210	2990
0	6364	4210	2980
0	6370	4210	2970
0	6376	4210	2960
0	6382	4210	2950
0	6388	4210	2940
0	6394	4210	2930
0	6400	4210	2920
0	6406	4210	2910
0	6412	4210	2900
0	6418	4210	2890
0	6424	4210	2880
0	6430	4210	2870
0	6436	4210	2860
0	6442	4210	2850
0	6448	4210	2840
0	6454	4210	2830
0	6460	4210	2820
0	6466	4210	2810
0	6472	4210	2800
0	6478	4210	2790
0	6484	4210	2780
0	6490	4210	2770
0	6496	4210	2760
0	6502	4210	2750
0	6508	4210	2740
0	6514	4210	2730
0	6520	4210	2720
0	6526	4210	2710
0	6532	4210	2700
0	6538	4210	2690
0	6544	4210	2680
0	6550	4210	2670
0	6556	4210	2660
0	6562	4210	2650
0	6568	4210	2640
0	6574	4210	2630
0	6580	4210	2620
0	6586	4210	2610
0	6592	4210	2600
0	6598	4210	2590
0	6604	4210	2580
0	6610	4210	2570
0	6616	4210	2560
0	6622	4210	2550
0	6628	4210	2540
0	6634	4210	2530
0	6640	4210	2520
0	6646	4210	2510
0	6652	4210	2500
0	6658	4210	2490
0	6664	4210	2480
0	6670	4210	2470
0	6676	4210	2460
0	6682	4210	2450
0	6688	4210	2440
0	6694	4210	2430
0	6700	4210	2420
0	6706	4210	2410
0	6712	4210	2400
0	6718	4210	2390
0	6724	4210	2380
0	6730	4210	2370
0	6736	4210	2360
0	6742	4210	2350
0	6748	4210	2340
0	6754	4210	2330
0	6760	4210	2320
0	6766	4210	2310
0	6772	4210	2300
0	6778	4210	2290
0	6784	4210	2280
0	6790	4210	2270
0	6796	4210	2260
0	6802	4210	2250
0	6808	4210	2240
0	6814	4210	2230
0	6820	4210	2220
0	6826	4210	2210
0	6832	4210	2200
0	6838	4210	2190
0	6844	4210	2180
0	6850	4210	2170
0	6856	4210	2160
0	6862	4210	2150
0	6868	4210	2140
0	6874	4210	2130
0	6880	4210	2120
0	6886	4210	2110
0	6892	4210	2100
0	6898	4210	2090
0	6904	4210	2080
0	6910	4210	2070
0	6916	4210	2060
0	6922	4210	2050
0	6928	4210	2040
0	6934	4210	2030
0	6940	4210	2020
0	6946	4210	2010
0	6952	4210	2000
0	6958	4210	1990
0	6964	4210	1980
0	6970	4210	1970
0	6976	4210	1960
0	6982	4210	1950
0	6988	4210	1940
0	6994	4210	1930
0	7000	4210	1920
0	7006	4210	1910
0	7012	4210	1900
0	7018	4210	1890
0	7024	4210	1880
0	7030	4210	1870
0	7036	4210	1860
0	7042	4210	1850
0	7048	4210	1840
0	7054	4210	1830
0	7060	4210	1820
0	7066	4210	1810
0	7072	4210	1800
0	7078	4210	1790
0	7084	4210	1780
0	7090	4210	1770
0	7096	4210	1760
0	7102	4210	1750
0	7108	4210	1740
0	7114	4210	1730
0	7120	4210	1720
0	7126	4210	1710
0	7132	4210	1700
0	7138	4210	1690
0	7144	4210	1680
0	7150	4210	1670
0	7156	4210	1660
0	7162	4210	1650
0	7168	4210	1640
0	7174	4210	1630
0	7180	4210	1620
0	7186	4210	1610
0	7192	4210	1600
0	7198	4210	1590
0	7204	4210	1580
0	7210	4210	1570
0	7216	4210	1560
0	7222	4210	1550
0	7228	4210	1540
0	7234	4210	1530
0	7240	4210	1520
0	7246	4210	1510
0	7252	4210	1500
0	7258	4210	1490
0	7264	4210	1480
0	7270	4210	1470
0	7276	4210	1460
0	7282	4210	1450
0	7288	4210	1440
0	7294	4210	1430
0	7300	4210	1420
0	7306	4210	1410
0	7312	4210	1400
0	7318	4210	1390
0	7324	4210	1380
0	7330	4210	1370
0	7336	4210	1360
0	7342	4210	1350
0	7348	4210	1340
0	7354	4210	1330
0	7360	4210	1320
0	7366	4210	1310
0	7372	4210	1300
0	7378	4210	1290
0	7384	4210	1280
0	7390	4210	1270
0	7396	4210	1260
0	7402	4210	1250
0	7408	4210	1240
0	7414	4210	1230
0	7420	4210	1220
0	7426	4210	1210
0	7432	4210	1200
0	7438	4210	1190
0	7444	4210	1180
0	7450	4210	1170
0	7456	4210	1160
0	7462	4210	1150
0	7468	4210	1140
0	7474	4210	1130
0	7480	4210	1120
0	7486	4210	1110
0	7492	4210	1100
0	7498	4210	1090
0	7504	4210	1080
0	7510	4210	1070
0	7516	4210	1060
0	7522	4210	1050
0	7528	4210	1040
0	7534	4210	1030
0	7540	4210	1020
0	7546	4210	1010
0	7552	4210	1000
0	7558	4210	990
0	7564	4210	980
0	7570	4210	970
0	7576	4210	960
0	7582	4210	950
0	7588	4210	940
0	7594	4210	930
0	7600	4210	920
0	7606	4210	910
0	7612	4210	900
0	7618	4210	890
0	7624	4210	880
0	7630	4210	870
0	7636	4210	860
0	7642	4210	850
0	7648	4210	840
0	7654	4210	830
0	7660	4210	820
0	7666	4210	810
0	7678	4218	808
0	7703	4228	808
0	7728	4238	808
0	7753	4248	808
0	7778	4258	808
0	7803	4268	808
0	7828	4278	808
0	7853	4288	808
0	7878	4298	808
0	7903	4308	808
0	7928	4318	808
0	7953	4328	808
0	7978	4338	808
0	8003	4348	808
0	8028	4358	808
0	8053	4368	808
0	8078	4378	808
0	8103	4388	808
0	8129	4398	808
0	8153	4408	808
0	8177	4418	808
0	8201	4428	808
0	8226	4438	808
0	8250	4448	808
0	8274	4458	808
0	8298	4468	808
0	8322	4478	808
0	8346	4488	808
0	8370	4498	808
0	8394	4508	808
0	8418	4518	808
0	8442	4528	808
0	8466	4538	808
0	8490	4548	808
0	8514	4558	808
0	8538	4568	808
0	8562	4578	808
0	8586	4588	808
0	8610	4598	808
0	8634	4608	808
0	8658	4618	808
0	8682	4628	808
0	8706	4638	808
0	8730	4648	808
0	8754	4658	808
0	8775	4668	808
0	8796	4678	808
0	8819	4688	808
0	8840	4698	808
0	8861	4708	808
0	8882	4718	808
0	8903	4728	808
0	8924	4738	808
0	8945	4748	808
0	8966	4758	808
0	8987	4768	808
0	9008	4778	808
0	9029	4788	808
0	9050	4798	808
0	9071	4808	808
0	9092	4818	808
0	9113	4828	808
0	9134	4838	808
0	9155	4848	808
0	9176	4858	808
0	9197	4868	808
0	9218	4878	808
0	9239	4888	808
0	9260	4898	808
0	9281	4908	808
0	9302	4918	808
0	9323	4928	808
0	9346	4938	808
0	9367	4948	808
0	9388	4958	808
0	9409	4968	808
0	9430	4978	808
0	9451	4988	808
0	9472	4998	808
0	9493	5008	808
0	9514	5018	808
0	9535	5028	808
0	9556	5038	808
0	9577	5048	808
0	9598	5058	808
0	9619	5068	808
0	9640	5078	808
0	9661	5088	808
0	9682	5098	808
0	9703	5108	808
0	9724	5118	808
0	9745	5128	808
0	9766	5138	808
0	9787	5148	808
0	9808	5158	808
0	9829	5168	808
0	9850	5178	808
0	9871	5188	808
0	9892	5198	808
0	9913	5208	808
0	9934	5218	808
0	9955	5228	808
0	9976	5238	808
0	9997	5248	808
0	10018	5258	808
0	10039	5268	808
0	10060	5278	808
0	10081	5288	808
0	10102	5298	808
0	10123	5308	808
0	10144	5318	808
0	10165	5328	808
0	10186	5338	808
0	10207	5348	808
0	10228	5358	808
0	10249	5368	808
0	10270	5378	808
0	10291	5388	808
0	10312	5398	808
0	10333	5408	808
0	10354	5418	808
0	10375	5428	808
0	10396	5438	808
0	10417	5448	808
0	10438	5458	808
0	13445	7651	2991
0	13451	7651	2981
0	13457	7651	2971
0	13463	7651	2961
0	13469	7651	2951
0	13475	7651	2941
0	13481	7651	2931
0	13487	7651	2921
0	13493	7651	2911
0	13499	7651	2901
0	13505	7651	2891
0	13511	7651	2881
0	13517	7651	2871
0	13523	7651	2861
0	13529	7651	2851
0	13535	7651	2841
0	13541	7651	2831
0	13547	7651	2821
0	13553	7651	2811
0	13559	7651	2801
0	13565	7651	2791
0	13571	7651	2781
0	13577	7651	2771
0	13583	7651	2761
0	13589	7651	2751
0	13595	7651	2741
0	13601	7651	2731
0	13607	7651	2721
0	13613	7651	2711
0	13619	7651	2701
0	13625	7651	2691
0	13631	7651	2681
0	13637	7651	2671
0	13643	7651	2661
0	13649	7651	2651
0	13655	7651	2641
0	13661	7651	2631
0	13667	7651	2621
0	13673	7651	2611
0	13679	7651	2601
0	13685	7651	2591
0	13691	7651	2581
0	13697	7651	2571
0	13703	7651	2561
0	13709	7651	2551
0	13715	7651	2541
0	13721	7651	2531
0	13727	7651	2521
0	13733	7651	2511
0	13739	7651	2501
0	13745	7651	2491
0	13751	7651	2481
0	13757	7651	2471
0	13763	7651	2461
0	13769	7651	2451
0	13775	7651	2441
0	13781	7651	2431
0	13787	7651	2421
0	13793	7651	2411
0	13799	7651	2401
0	13805	7651	2391
0	13811	7651	2381
0	13817	7651	2371
0	13823	7651	2361
0	13829	7651	2351
0	13835	7651	2341
0	13841	7651	2331
0	13847	7651	2321
0	13853	7651	2311
0	13859	7651	2301
0	13865	7651	2291
0	13871	7651	2281
0	13877	7651	2271
0	13883	7651	2261
0	13889	7651	2251
0	13895	7651	2241
0	13901	7651	2231
0	13907	7651	2221
0	13913	7651	2211
0	13919	7651	2201
0	13925	7651	2191
0	13931	7651	2181
0	13937	7651	2171
0	13943	7651	2161
0	13949	7651	2151
0	13955	7651	2141
0	13961	7651	2131
0	13967	7651	2121
0	13973	7651	2111
0	13979	7651	2101
0	13985	7651	2091
0	13991	7651	2081
0	13997	7651	2071
0	14003	7651	2061
0	14009	7651	2051
0	14015	7651	2041
0	14021	7651	2031
0	14027	7651	2021
0	14033	7651	2011
0	14039	7651	2001
0	14045	7651	1991
0	14051	7651	1981
0	14057	7651	1971
0	14063	7651	1961
0	14069	7651	1951
0	14075	7651	1941
0	14081	7651	1931
0	14087	7651	1921
0	14093	7651	1911
0	14099	7651	1901
0	14105	7651	1891
0	14111	7651	1881
0	14117	7651	1871
0	14123	7651	1861
0	14129	7651	1851
0	14135	7651	1841
0	14141	7651	1831
0	14147	7651	1821
0	14153	7651	1811
0	14159	7651	1801
0	14165	7651	1791
0	14171	7651	1781
0	14177	7651	1771
0	14183	7651	1761
0	14189	7651	1751
0	14195	7651	1741
0	14201	7651	1731
0	14207	7651	1721
0	14213	7651	1711
0	14219	7651	1701
0	14225	7651	1691
0	14231	7651	1681
0	14237	7651	1671
0	14243	7651	1661
0	14249	7651	1651
0	14255	7651	1641
0	14261	7651	1631
0	14267	7651	1621
0	14273	7651	1611
0	14279	7651	1601
0	14285	7651	1591
0	14291	7651	1581
0	14297	7651	1571
0	14303	7651	1561
0	14309	7651	1551
0	14315	7651	1541
0	14321	7651	1531
0	14327	7651	1521
0	14333	7651	1511
0	14339	7651	1501
0	14345	7651	1491
0	14351	7651	1481
0	14357	7651	1471
0	14363	7651	1461
0	14369	7651	1451
0	14375	7651	1441
0	14381	7651	1431
0	14387	7651	1421
0	14393	7651	1411
0	14399	7651	1401
0	14405	7651	1391
0	14411	7651	1381
0	14417	7651	1371
0	14423	7651	1361
0	14429	7651	1351
0	14435	7651	1341
0	14441	7651	1331
0	14447	7651	1321
0	14453	7651	1311
0	14459	7651	1301
0	14465	7651	1291
0	14471	7651	1281
0	14477	7651	1271
0	31623	16688	10298
0	31630	16688	10288
0	31636	16688	10278
0	31642	16688	10268
0	31648	16688	10258
0	31654	16688	10248
0	31660	16688	10238
0	31666	16688	10228
0	31672	16688	10218
0	31678	16688	10208
0	31684	16688	10198
0	31690	16688	10188
0	31696	16688	10178
0	31702	16688	10168
0	31708	16688	10158
0	31714	16688	10148
0	31720	16688	10138
0	31726	16688	10128
0	31732	16688	10118
0	31738	16688	10108
0	31744	16688	10098
0	31750	16688	10088
0	31756	16688	10078
0	31762	16688	10068
0	31768	16688	10058
0	31774	16688	10048
0	31780	16688	10038
0	31786	16688	10028
0	31792	16688	10018
0	31798	16688	10008
0	31804	16688	9998
0	31810	16688	9988
0	31816	16688	9978
0	31822	16688	9968
0	31828	16688	9958
0	31834	16688	9948
0	31840	16688	9938
0	31846	16688	9928
0	31852	16688	9918
0	31858	16688	9908
0	31864	16688	9898
0	31870	16688	9888
0	31876	16688	9878
0	31882	16688	9868
0	31888	16688	9858
0	31894	16688	9848
0	31900	16688	9838
0	31906	16688	9828
0	31912	16688	9818
0	31918	16688	9808
0	31924	16688	9798
0	31930	16688	9788
0	31936	16688	9778
0	31942	16688	9768
0	31948	16688	9758
0	31954	16688	9748
0	31960	16688	9738
0	31966	16688	9728
0	31972	16688	9718
0	31978	16688	9708
0	31984	16688	9698
0	31990	16688	9688
0	31996	16688	9678
0	32002	16688	9668
0	32008	16688	9658
0	32014	16688	9648
0	32020	16688	9638
0	32026	16688	9628
0	32032	16688	9618
0	32038	16688	9608
0	32044	16688	9598
0	32050	16688	9588
0	32056	16688	9578
0	32062	16688	9568
0	32068	16688	9558
0	32074	16688	9548
0	32080	16688	9538
0	32086	16688	9528
0	32092	16688	9518
0	32098	16688	9508
0	32104	16688	9498
0	32110	16688	9488
0	32116	16688	9478
0	32122	16688	9468
0	32128	16688	9458
0	32134	16688	9448
0	32140	16688	9438
0	32146	16688	9428
0	32152	16688	9418
0	32158	16688	9408
0	32164	16688	9398
0	32170	16688	9388
0	32176	16688	9378
0	32182	16688	9368
0	32188	16688	9358
0	32194	16688	9348
0	32200	16688	9338
0	32206	16688	9328
0	32212	16688	9318
0	32218	16688	9308
0	32224	16688	9298
0	32230	16688	9288
0	32236	16688	9278
0	32242	16688	9268
0	32248	16688	9258
0	32254	16688	9248
0	32260	16688	9238
0	32266	16688	9228
0	32272	16688	9218
0	32278	16688	9208
0	32284	16688	9198
0	32290	16688	9188
0	32296	16688	9178
0	32302	16688	9168
0	32308	16688	9158
0	32314	16688	9148
0	32320	16688	9138
0	32326	16688	9128
0	32332	16688	9118
0	32338	16688	9108
0	32344	16688	9098
0	32350	16688	9088
0	32356	16688	9078
0	32362	16688	9068
0	32368	16688	9058
0	32374	16688	9048
0	32380	16688	9038
0	32386	16688	9028
0	32392	16688	9018
0	32398	16688	9008
0	32404	16688	8998
0	32410	16688	8988
0	32416	16688	8978
0	32422	16688	8968
0	32428	16688	8958
0	32434	16688	8948
0	32440	16688	8938
0	32446	16688	8928
0	32452	16688	8918
0	32458	16688	8908
0	32464	16688	8898
0	32470	16688	8888
0	32476	16688	8878
0	32482	16688	8868
0	32488	16688	8858
0	32494	16688	8848
0	32500	16688	8838
0	32506	16688	8828
0	32512	16688	8818
0	32518	16688	8808
0	32524	16688	8798
0	32530	16688	8788
0	32536	16688	8778
0	32542	16688	8768
0	32548	16688	8758
0	32554	16688	8748
0	32560	16688	8738
0	32566	16688	8728
0	32572	16688	8718
0	32578	16688	8708
0	32584	16688	8698
0	32590	16688	8688
0	32596	16688	8678
0	32602	16688	8668
0	32608	16688	8658
0	32614	16688	8648
0	32620	16688	8638
0	32626	16688	8628
0	32632	16688	8618
0	32638	16688	8608
0	32644	16688	8598
0	32650	16688	8588
0	32656	16688	8578
0	32662	16688	8568
0	32668	16688	8558
0	32674	16688	8548
0	32680	16688	8538
0	32686	16688	8528
0	32692	16688	8518
0	32698	16688	8508
0	32704	16688	8498
0	32710	16688	8488
0	32716	16688	8478
0	32722	16688	8468
0	32728	16688	8458
0	32734	16688	8448
0	32740	16688	8438
0	32746	16688	8428
0	32752	16688	8418
0	32758	16688	8408
0	32764	16688	8398
0	32770	16688	8388
0	32776	16688	8378
0	32782	16688	8368
0	32788	16688	8358
0	32794	16688	8348
0	32800	16688	8338
0	32806	16688	8328
0	32812	16688	8318
0	32818	16688	8308
0	32824	16688	8298
0	32830	16688	8288
0	32836	16688	8278
0	32842	16688	8268
0	32848	16688	8258
0	32854	16688	8248
0	32860	16688	8238
0	32866	16688	8228
0	32872	16688	8218
0	32878	16688	8208
0	32884	16688	8198
0	32890	16688	8188
0	32896	16688	8178
0	32902	16688	8168
0	32908	16688	8158
0	32914	16688	8148
0	32920	16688	8138
0	32926	16688	8128
0	32932	16688	8118
0	32938	16688	8108
0	32944	16688	8098
0	32950	16688	8088
0	32956	16688	8078
0	32962	16688	8068
0	32968	16688	8058
0	32974	16688	8048
0	32980	16688	8038
0	32986	16688	8028
0	32992	16688	8018
0	32998	16688	8008
0	33004	16688	7998
0	33010	16688	7988
0	33016	16688	7978
0	33022	16688	7968
0	33028	16688	7958
0	33034	16688	7948
0	33040	16688	7938
0	33046	16688	7928
0	33052	16688	7918
0	33058	16688	7908
0	33064	16688	7898
0	33070	16688	7888
0	33076	16688	7878
0	33082	16688	7868
0	33088	16688	7858
0	33094	16688	7848
0	33100	16688	7838
0	33106	16688	7828
0	33112	16688	7818
0	33118	16688	7808
0	33124	16688	7798
0	33130	16688	7788
0	33136	16688	7778
0	33142	16688	7768
0	33148	16688	7758
0	33154	16688	7748
0	33160	16688	7738
0	33166	16688	7728
0	33172	16688	7718
0	33178	16688	7708
0	33184	16688	7698
0	33190	16688	7688
0	33196	16688	7678
0	33202	16688	7668
0	33208	16688	7658
0	33214	16688	7648
0	33220	16688	7638
0	33226	16688	7628
0	33232	16688	7618
0	33238	16688	7608
0	33244	16688	7598
0	33250	16688	7588
0	33256	16688	7578
0	33262	16688	7568
0	33268	16688	7558
0	33274	16688	7548
0	33280	16688	7538
0	33286	16688	7528
0	33292	16688	7518
0	33298	16688	7508
0	33304	16688	7498
0	33310	16688	7488
0	33316	16688	7478
0	33322	16688	7468
0	33328	16688	7458
0	33334	16688	7448
0	33340	16688	7438
0	33346	16688	7428
0	33352	16688	7418
0	33358	16688	7408
0	33364	16688	7398
0	33370	16688	7388
0	33376	16688	7378
0	33382	16688	7368
0	33388	16688	7358
0	33394	16688	7348
0	33400	16688	7338
0	33406	16688	7328
0	33412	16688	7318
0	33418	16688	7308
0	33424	16688	7298
0	33430	16688	7288
0	33436	16688	7278
0	33442	16688	7268
0	33448	16688	7258
0	33454	16688	7248
0	33460	16688	7238
0	33466	16688	7228
0	33472	16688	7218
0	33478	16688	7208
0	33484	16688	7198
0	33490	16688	7188
0	33496	16688	7178
0	33502	16688	7168
0	33508	16688	7158
0	33514	16688	7148
0	33520	16688	7138
0	33526	16688	7128
0	33532	16688	7118
0	33538	16688	7108
0	33544	16688	7098
0	33550	16688	7088
0	33556	16688	7078
0	33562	16688	7068
0	33568	16688	7058
0	33574	16688	7048
0	33580	16688	7038
0	33586	16688	7028
0	33592	16688	7018
0	33598	16688	7008
0	33604	16688	6998
0	33610	16688	6988
0	33616	16688	6978
0	33622	16688	6968
0	33628	16688	6958
0	33634	16688	6948
0	33640	16688	6938
0	33646	16688	6928
0	33652	16688	6918
0	33658	16688	6908
0	33664	16688	6898
0	33670	16688	6888
0	33676	16688	6878
0	33682	16688	6868
0	33688	16688	6858
0	33694	16688	6848
0	33700	16688	6838
0	33706	16688	6828
0	33712	16688	6818
0	33718	16688	6808
0	33724	16688	6798
0	33730	16688	6788
0	33736	16688	6778
0	33742	16688	6768
0	33748	16688	6758
0	33754	16688	6748
0	33760	16688	6738
0	33766	16688	6728
0	33772	16688	6718
0	33778	16688	6708
0	33784	16688	6698
0	33790	16688	6688
0	33796	16688	6678
0	33802	16688	6668
0	33808	16688	6658
0	33814	16688	6648
0	33820	16688	6638
0	33826	16688	6628
0	33832	16688	6618
0	33838	16688	6608
0	33844	16688	6598
0	33850	16688	6588
0	33856	16688	6578
0	33862	16688	6568
0	33868	16688	6558
0	33874	16688	6548
0	33880	16688	6538
0	33886	16688	6528
0	33892	16688	6518
0	33898	16688	6508
0	33904	16688	6498
0	33910	16688	6488
0	33916	16688	6478
0	33922	16688	6468
0	33928	16688	6458
0	33934	16688	6448
0	33940	16688	6438
0	33946	16688	6428
0	33952	16688	6418
0	33958	16688	6408
0	33964	16688	6398
0	33970	16688	6388
0	33976	16688	6378
0	33982	16688	6368
0	33988	16688	6358
0	33994	16688	6348
0	34000	16688	6338
0	34006	16688	6328
0	34012	16688	6318
0	34018	16688	6308
0	34024	16688	6298
0	34030	16688	6288
0	34036	16688	6278
0	34042	16688	6268
0	34048	16688	6258
0	34054	16688	6248
0	34060	16688	6238
0	34066	16688	6228
0	34072	16688	6218
0	34078	16688	6208
0	34084	16688	6198
0	34090	16688	6188
0	34096	16688	6178
0	34102	16688	6168
0	34108	16688	6158
0	34114	16688	6148
0	34120	16688	6138
0	34126	16688	6128
0	34132	16688	6118
0	34138	16688	6108
0	34144	16688	6098
0	34150	16688	6088
0	34156	16688	6078
0	34162	16688	6068
0	34168	16688	6058
0	34174	16688	6048
0	34180	16688	6038
0	34186	16688	6028
0	34192	16688	6018
0	34198	16688	6008
0	34204	16688	5998
0	34210	16688	5988
0	34216	16688	5978
0	34222	16688	5968
0	34228	16688	5958
0	34234	16688	5948
0	34240	16688	5938
0	34246	16688	5928
0	34252	16688	5918
0	34258	16688	5908
0	34264	16688	5898
0	34270	16688	5888
0	34276	16688	5878
0	34282	16688	5868
0	34288	16688	5858
0	34294	16688	5848
0	34300	16688	5838
0	34306	16688	5828
0	34312	16688	5818
0	34318	16688	5808
0	34324	16688	5798
0	34330	16688	5788
0	34336	16688	5778
0	34342	16688	5768
0	34348	16688	5758
0	34354	16688	5748
0	34360	16688	5738
0	34366	16688	5728
0	34372	16688	5718
0	34378	16688	5708
0	34384	16688	5698
0	34390	16688	5688
0	34396	16688	5678
0	34402	16688	5668
0	34408	16688	5658
0	34414	16688	5648
0	34420	16688	5638
0	34426	16688	5628
0	34432	16688	5618
0	34438	16688	5608
0	34444	16688	5598
0	34450	16688	5588
0	34456	16688	5578
0	34462	16688	5568
0	34468	16688	5558
0	34474	16688	5548
0	34480	16688	5538
0	34486	16688	5528
0	34492	16688	5518
0	34498	16688	5508
0	34504	16688	5498
0	34510	16688	5488
0	34516	16688	5478
0	34522	16688	5468
0	34528	16688	5458
0	34534	16688	5448
0	34540	16688	5438
0	34546	16688	5428
0	34552	16688	5418
0	34558	16688	5408
0	34564	16688	5398
0	34570	16688	5388
0	34576	16688	5378
0	34582	16688	5368
0	34588	16688	5358
0	34594	16688	5348
0	34600	16688	5338
0	34606	16688	5328
0	34612	16688	5318
0	34618	16688	5308
0	34624	16688	5298
0	34630	16688	5288
0	34636	16688	5278
0	34642	16688	5268
0	34648	16688	5258
0	34654	16688	5248
0	34660	16688	5238
0	34666	16688	5228
0	34672	16688	5218
0	34678	16688	5208
0	34684	16688	5198
0	34690	16688	5188
0	34696	16688	5178
0	34702	16688	5168
0	34708	16688	5158
0	34714	16688	5148
0	34720	16688	5138
0	34726	16688	5128
0	34732	16688	5118
0	34738	16688	5108
0	34744	16688	5098
0	34750	16688	5088
0	34756	16688	5078
0	34762	16688	5068
0	34768	16688	5058
0	34774	16688	5048
0	34780	16688	5038
0	34786	16688	5028
0	34792	16688	5018
0	34798	16688	5008
0	34804	16688	4998
0	34810	16688	4988
0	34816	16688	4978
0	34822	16688	4968
0	34828	16688	4958
0	34834	16688	4948
0	34840	16688	4938
0	34846	16688	4928
0	34852	16688	4918
0	34858	16688	4908
0	34864	16688	4898
0	34870	16688	4888
0	34876	16688	4878
0	34882	16688	4868
0	34888	16688	4858
0	34894	16688	4848
0	34900	16688	4838
0	34906	16688	4828
0	34912	16688	4818
0	34918	16688	4808
0	34924	16688	4798
0	34930	16688	4788
0	34936	16688	4778
0	34942	16688	4768
0	34948	16688	4758
0	34954	16688	4748
0	34960	16688	4738
0	34966	16688	4728
0	34972	16688	4718
0	34978	16688	4708
0	34984	16688	4698
0	34990	16688	4688
0	34996	16688	4678
0	35002	16688	4668
0	35008	16688	4658
0	35014	16688	4648
0	35020	16688	4638
0	35026	16688	4628
0	35032	16688	4618
0	35038	16688	4608
0	35044	16688	4598
0	35050	16688	4588
0	35056	16688	4578
0	35062	16688	4568
0	35068	16688	4558
0	35074	16688	4548
0	35080	16688	4538
0	35086	16688	4528
0	35092	16688	4518
0	35098	16688	4508
0	35104	16688	4498
0	35110	16688	4488
0	35116	16688	4478
0	35122	16688	4468
0	35128	16688	4458
0	35134	16688	4448
0	35140	16688	4438
0	35146	16688	4428
0	35152	16688	4418
0	35158	16688	4408
0	35164	16688	4398
0	35170	16688	4388
0	35176	16688	4378
0	35182	16688	4368
0	35188	16688	4358
0	35194	16688	4348
0	35200	16688	4338
0	35206	16688	4328
0	35212	16688	4318
0	35218	16688	4308
0	35224	16688	4298
0	35230	16688	4288
0	35236	16688	4278
0	35242	16688	4268
0	35248	16688	4258
0	35254	16688	4248
0	35260	16688	4238
0	35266	16688	4228
0	35272	16688	4218
0	35278	16688	4208
0	35284	16688	4198
0	35290	16688	4188
0	35296	16688	4178
0	35302	16688	4168
0	35308	16688	4158
0	35314	16688	4148
0	35320	16688	4138
0	35326	16688	4128
0	35332	16688	4118
0	35338	16688	4108
0	35344	16688	4098
0	35350	16688	4088
0	35356	16688	4078
0	35362	16688	4068
0	35368	16688	4058
0	35374	16688	4048
0	35380	16688	4038
0	35386	16688	4028
0	35392	16688	4018
0	35398	16688	4008
0	35404	16688	3998
0	35410	16688	3988
0	35416	16688	3978
0	35422	16688	3968
0	35428	16688	3958
0	35434	16688	3948
0	35440	16688	3938
0	35446	16688	3928
0	35452	16688	3918
0	35458	16688	3908
0	35464	16688	3898
0	35470	16688	3888
0	35476	16688	3878
0	35482	16688	3868
0	35488	16688	3858
0	35494	16688	3848
0	35500	16688	3838
0	35506	16688	3828
0	35512	16688	3818
0	35518	16688	3808
0	35524	16688	3798
0	35530	16688	3788
0	35536	16688	3778
0	35542	16688	3768
0	35548	16688	3758
0	35554	16688	3748
0	35560	16688	3738
0	35566	16688	3728
0	35572	16688	3718
0	35578	16688	3708
0	35584	16688	3698
0	35590	16688	3688
0	35596	16688	3678
0	35602	16688	3668
0	35608	16688	3658
0	35614	16688	3648
0	35620	16688	3638
0	35626	16688	3628
0	35632	16688	3618
0	35638	16688	3608
0	35644	16688	3598
0	35650	16688	3588
0	35656	16688	3578
0	35662	16688	3568
0	35668	16688	3558
0	35674	16688	3548
0	35680	16688	3538
0	35686	16688	3528
0	35692	16688	3518
0	35698	16688	3508
0	35704	16688	3498
0	35710	16688	3488
0	35716	16688	3478
0	35722	16688	3468
0	35728	16688	3458
0	35734	16688	3448
0	35740	16688	3438
0	35746	16688	3428
0	35752	16688	3418
0	35758	16688	3408
0	35764	16688	3398
0	35770	16688	3388
0	35776	16688	3378
0	35782	16688	3368
0	35788	16688	3358
0	35794	16688	3348
0	35800	16688	3338
0	35806	16688	3328
0	35812	16688	3318
0	35818	16688	3308
0	35824	16688	3298
0	35830	16688	3288
0	35836	16688	3278
0	35842	16688	3268
0	35848	16688	3258
0	35854	16688	3248
0	35860	16688	3238
0	35866	16688	3228
0	35872	16688	3218
0	35878	16688	3208
0	35884	16688	3198
0	35890	16688	3188
0	35896	16688	3178
0	35902	16688	3168
0	35908	16688	3158
0	35914	16688	3148
0	35920	16688	3138
0	35926	16688	3128
0	35932	16688	3118
0	35938	16688	3108
0	35944	16688	3098
0	35950	16688	3088
0	35956	16688	3078
0	35962	16688	3068
0	35968	16688	3058
0	35974	16688	3048
0	35980	16688	3038
0	35986	16688	3028
0	35992	16688	3018
0	35998	16688	3008
0	36004	16688	2998
0	36010	16688	2988
0	36016	16688	2978
0	36022	16688	2968
0	36028	16688	2958
0	36034	16688	2948
0	36040	16688	2938
0	36046	16688	2928
0	36052	16688	2918
0	36058	16688	2908
0	36064	16688	2898
0	36070	16688	2888
0	36076	16688	2878
0	36082	16688	2868
0	36088	16688	2858
0	36094	16688	2848
0	36100	16688	2838
0	36106	16688	2828
0	36112	16688	2818
0	36118	16688	2808
0	36124	16688	2798
0	36130	16688	2788
0	36136	16688	2778
0	36142	16688	2768
0	36148	16688	2758
0	36154	16688	2748
0	36160	16688	2738
0	36166	16688	2728
0	36172	16688	2718
0	36178	16688	2708
0	36184	16688	2698
0	36190	16688	2688
0	36196	16688	2678
0	36202	16688	2668
0	36208	16688	2658
0	36214	16688	2648
0	36220	16688	2638
0	36226	16688	2628
0	36232	16688	2618
0	36238	16688	2608
0	36244	16688	2598
0	36250	16688	2588
0	36256	16688	2578
0	36262	16688	2568
0	36268	16688	2558
0	36274	16688	2548
0	36280	16688	2538
0	36286	16688	2528
0	36292	16688	2518
0	36298	16688	2508
0	36304	16688	2498
0	36310	16688	2488
0	36316	16688	2478
0	36322	16688	2468
0	36328	16688	2458
0	36334	16688	2448
0	36340	16688	2438
0	36346	16688	2428
0	36352	16688	2418
0	36358	16688	2408
0	36364	16688	2398
0	36370	16688	2388
0	36376	16688	2378
0	36382	16688	2368
0	36388	16688	2358
0	36394	16688	2348
0	36400	16688	2338
0	36406	16688	2328
0	36412	16688	2318
0	36418	16688	2308
0	36424	16688	2298
0	36430	16688	2288
0	36436	16688	2278
0	36442	16688	2268
0	36448	16688	2258
0	36454	16688	2248
0	36460	16688	2238
0	36466	16688	2228
0	36472	16688	2218
0	36478	16688	2208
0	36484	16688	2198
0	36490	16688	2188
0	36496	16688	2178
0	36502	16688	2168
0	36508	16688	2158
0	36514	16688	2148
0	36520	16688	2138
0	36526	16688	2128
0	36532	16688	2118
0	36538	16688	2108
0	36544	16688	2098
0	36550	16688	2088
0	36556	16688	2078
0	36562	16688	2068
0	36568	16688	2058
0	36574	16688	2048
0	36580	16688	2038
0	36586	16688	2028
0	36592	16688	2018
0	36598	16688	2008
0	36604	16688	1998
0	36610	16688	1988
0	36616	16688	1978
0	36622	16688	1968
0	36628	16688	1958
0	36634	16688	1948
0	36640	16688	1938
0	36646	16688	1928
0	36652	16688	1918
0	36658	16688	1908
0	36664	16688	1898
0	36670	16688	1888
0	36676	16688	1878
0	36682	16688	1868
0	36688	16688	1858
0	36694	16688	1848
0	36700	16688	1838
0	36706	16688	1828
0	36712	16688	1818
0	36718	16688	1808
0	36724	16688	1798
0	36730	16688	1788
0	36736	16688	1778
0	36742	16688	1768
0	36748	16688	1758
0	36754	16688	1748
0	36760	16688	1738
0	36766	16688	1728
0	36772	16688	1718
0	36778	16688	1708
0	36784	16688	1698
0	36790	16688	1688
0	36796	16688	1678
0	36802	16688	1668
0	36808	16688	1658
0	36814	16688	1648
0	36820	16688	1638
0	36826	16688	1628
0	36832	16688	1618
0	36838	16688	1608
0	36844	16688	1598
0	36850	16688	1588
0	36856	16688	1578
0	36862	16688	1568
0	36868	16688	1558
0	36874	16688	1548
0	36880	16688	1538
0	36886	16688	1528
0	36892	16688	1518
0	36898	16688	1508
0	36904	16688	1498
0	36910	16688	1488
0	36916	16688	1478
0	36922	16688	1468
0	36928	16688	1458
0	36934	16688	1448
0	36940	16688	1438
0	36946	16688	1428
0	36952	16688	1418
0	36958	16688	1408
0	36964	16688	1398
0	36970	16688	1388
0	36976	16688	1378
0	36982	16688	1368
0	36988	16688	1358
0	36994	16688	1348
0	37000	16688	1338
0	37006	16688	1328
0	37012	16688	1318
0	37018	16688	1308
0	37024	16688	1298
0	37030	16688	1288
0	37036	16688	1278
0	37042	16688	1268
0	37048	16688	1258
0	37054	16688	1248
0	37060	16688	1238
0	37066	16688	1228
0	37072	16688	1218
0	37078	16688	1208
0	37084	16688	1198
0	37090	16688	1188
0	37096	16688	1178
0	37102	16688	1168
0	37108	16688	1158
0	37114	16688	1148
0	37120	16688	1138
0	37126	16688	1128
0	37132	16688	1118
0	37138	16688	1108
0	37144	16688	1098
0	37150	16688	1088
0	37156	16688	1078
0	37162	16688	1068
0	37168	16688	1058
0	37174	16688	1048
0	37180	16688	1038
0	37186	16688	1028
0	37192	16688	1018
0	37198	16688	1008
0	37204	16688	998
0	37210	16688	988
0	37216	16688	978
0	37222	16688	968
0	37228	16688	958
0	37234	16688	948
0	37240	16688	938
0	37246	16688	928
0	37252	16688	918
0	37258	16688	908
0	37264	16688	898
0	37270	16688	888
0	37276	16688	878
0	37282	16688	868
0	37288	16688	858
0	37294	16688	848
0	37300	16688	838
0	37306	16688	828
0	37312	16688	818
0	37318	16688	808
0	40130	18779	2069
0	40137	18779	2059
0	40143	18779	2049
0	40149	18779	2039
0	40155	18779	2029
0	40161	18779	2019
0	40167	18779	2009
0	40173	18779	1999
0	40179	18779	1989
0	40185	18779	1979
0	40191	18779	1969
0	40197	18779	1959
0	40203	18779	1949
0	40209	18779	1939
0	40215	18779	1929
0	40221	18779	1919
0	40227	18779	1909
0	40233	18779	1899
0	40239	18779	1889
0	40245	18779	1879
0	40251	18779	1869
0	40257	18779	1859
0	40263	18779	1849
0	40269	18779	1839
0	40275	18779	1829
0	40281	18779	1819
0	40287	18779	1809
0	40293	18779	1799
0	40299	18779	1789
0	40305	18779	1779
0	40311	18779	1769
0	40317	18779	1759
0	40323	18779	1749
0	40329	18779	1739
0	40335	18779	1729
0	40341	18779	1719
0	40347	18779	1709
0	40353	18779	1699
0	40359	18779	1689
0	40365	18779	1679
0	40371	18779	1669
0	40377	18779	1659
0	40383	18779	1649
0	40389	18779	1639
0	40395	18779	1629
0	40401	18779	1619
0	40407	18779	1609
0	40413	18779	1599
0	40419	18779	1589
0	40425	18779	1579
0	40431	18779	1569
0	40437	18779	1559
0	40443	18779	1549
0	40449	18779	1539
0	40455	18779	1529
0	40461	18779	1519
0	40467	18779	1509
0	40473	18779	1499
0	40479	18779	1489
0	40485	18779	1479
0	40491	18779	1469
0	40497	18779	1459
0	40503	18779	1449
0	40509	18779	1439
0	40515	18779	1429
0	40521	18779	1419
0	40527	18779	1409
0	40533	18779	1399
0	40539	18779	1389
0	40545	18779	1379
0	40551	18779	1369
0	40557	18779	1359
0	40563	18779	1349
0	40569	18779	1339
0	40575	18779	1329
0	40581	18779	1319
0	40587	18779	1309
0	40593	18779	1299
0	40599	18779	1289
0	40605	18779	1279
0	40611	18779	1269
0	40617	18779	1259
0	40623	18779	1249
0	40629	18779	1239
0	40635	18779	1229
0	40641	18779	1219
0	40647	18779	1209
0	40653	18779	1199
0	40659	18779	1189
0	40665	18779	1179
0	40671	18779	1169
0	40677	18779	1159
0	40683	18779	1149
0	40689	18779	1139
0	40695	18779	1129
0	40701	18779	1119
0	40707	18779	1109
0	40713	18779	1099
0	40719	18779	1089
0	40725	18779	1079
0	40731	18779	1069
0	40737	18779	1059
0	40743	18779	1049
0	40749	18779	1039
0	40755	18779	1029
0	40761	18779	1019
0	40767	18779	1009
0	40773	18779	999
0	40779	18779	989
0	40785	18779	979
0	40791	18779	969
0	40797	18779	959
0	40803	18779	949
0	40809	18779	939
0	40815	18779	929
0	40821	18779	919
0	40827	18779	909
0	40833	18779	899
0	40839	18779	889
0	40845	18779	879
0	40851	18779	869
0	40857	18779	859
0	40863	18779	849
0	40869	18779	839
0	40875	18779	829
0	40881	18779	819
0	40887	18779	809
0	40898	18788	808
0	40910	18798	808
0	40922	18808	808
0	40934	18818	808
0	40948	18828	808
0	40960	18838	808
0	40972	18848	808
0	40984	18858	808
0	40996	18868	808
0	41008	18878	808
0	41020	18888	808
0	41032	18898	808
0	41044	18908	808
0	41056	18918	808
0	41068	18928	808
0	41080	18938	808
0	41092	18948	808
0	41104	18958	808
0	46728	22489	4329
0	46734	22489	4319
0	46740	22489	4309
0	46746	22489	4299
0	46752	22489	4289
0	46758	22489	4279
0	46764	22489	4269
0	46770	22489	4259
0	46776	22489	4249
0	46782	22489	4239
0	46788	22489	4229
0	46794	22489	4219
0	46800	22489	4209
0	46806	22489	4199
0	46812	22489	4189
0	46818	22489	4179
0	46824	22489	4169
0	46830	22489	4159
0	46836	22489	4149
0	46842	22489	4139
0	46848	22489	4129
0	46854	22489	4119
0	46860	22489	4109
0	46866	22489	4099
0	46872	22489	4089
0	46878	22489	4079
0	46884	22489	4069
0	46890	22489	4059
0	46896	22489	4049
0	46902	22489	4039
0	46908	22489	4029
0	46914	22489	4019
0	46920	22489	4009
0	46926	22489	3999
0	46932	22489	3989
0	46938	22489	3979
0	46944	22489	3969
0	46950	22489	3959
0	46956	22489	3949
0	46962	22489	3939
0	46968	22489	3929
0	46974	22489	3919
0	46980	22489	3909
0	46986	22489	3899
0	46992	22489	3889
0	46998	22489	3879
0	47004	22489	3869
0	47010	22489	3859
0	47016	22489	3849
0	47022	22489	3839
0	47028	22489	3829
0	47034	22489	3819
0	47040	22489	3809
0	47046	22489	3799
0	47052	22489	3789
0	47058	22489	3779
0	47064	22489	3769
0	47070	22489	3759
0	47076	22489	3749
0	47082	22489	3739
0	47088	22489	3729
0	47094	22489	3719
0	47100	22489	3709
0	47106	22489	3699
0	47112	22489	3689
0	47118	22489	3679
0	47124	22489	3669
0	47130	22489	3659
0	47136	22489	3649
0	47142	22489	3639
0	47148	22489	3629
0	47154	22489	3619
0	47160	22489	3609
0	47166	22489	3599
0	47172	22489	3589
0	47178	22489	3579
0	47184	22489	3569
0	47190	22489	3559
0	47196	22489	3549
0	47202	22489	3539
0	47208	22489	3529
0	47214	22489	3519
0	47220	22489	3509
0	47226	22489	3499
0	47232	22489	3489
0	47238	22489	3479
0	47244	22489	3469
0	47250	22489	3459
0	47256	22489	3449
0	47262	22489	3439
0	47268	22489	3429
0	47274	22489	3419
0	47280	22489	3409
0	47286	22489	3399
0	47292	22489	3389
0	47298	22489	3379
0	47304	22489	3369
0	47310	22489	3359
0	47316	22489	3349
0	47322	22489	3339
0	47328	22489	3329
0	47334	22489	3319
0	47340	22489	3309
0	47346	22489	3299
0	47352	22489	3289
0	47358	22489	3279
0	47364	22489	3269
0	47370	22489	3259
0	47376	22489	3249
0	47382	22489	3239
0	47388	22489	3229
0	47394	22489	3219
0	47400	22489	3209
0	47406	22489	3199
0	47412	22489	3189
0	47418	22489	3179
0	47424	22489	3169
0	47430	22489	3159
0	47436	22489	3149
0	47442	22489	3139
0	47448	22489	3129
0	47454	22489	3119
0	47460	22489	3109
0	47466	22489	3099
0	47472	22489	3089
0	47478	22489	3079
0	47484	22489	3069
0	47490	22489	3059
0	47496	22489	3049
0	47502	22489	3039
0	47508	22489	3029
0	47514	22489	3019
0	47520	22489	3009
0	47526	22489	2999
0	47532	22489	2989
0	47538	22489	2979
0	47544	22489	2969
0	47550	22489	2959
0	47556	22489	2949
0	47562	22489	2939
0	47568	22489	2929
0	47574	22489	2919
0	47580	22489	2909
0	47586	22489	2899
0	47592	22489	2889
0	47598	22489	2879
0	47604	22489	2869
0	47610	22489	2859
0	47616	22489	2849
0	47622	22489	2839
0	47628	22489	2829
0	47634	22489	2819
0	47640	22489	2809
0	47646	22489	2799
0	47652	22489	2789
0	47658	22489	2779
0	47664	22489	2769
0	47670	22489	2759
0	47676	22489	2749
0	47682	22489	2739
0	47688	22489	2729
0	47694	22489	2719
0	47700	22489	2709
0	47706	22489	2699
0	47712	22489	2689
0	47718	22489	2679
0	47724	22489	2669
0	47730	22489	2659
0	47736	22489	2649
0	47742	22489	2639
0	47748	22489	2629
0	47754	22489	2619
0	47760	22489	2609
0	47766	22489	2599
0	47772	22489	2589
0	47778	22489	2579
0	47784	22489	2569
0	47790	22489	2559
0	47796	22489	2549
0	47802	22489	2539
0	47808	22489	2529
0	47814	22489	2519
0	47820	22489	2509
0	47826	22489	2499
0	47832	22489	2489
0	47838	22489	2479
0	47844	22489	2469
0	47850	22489	2459
0	47856	22489	2449
0	47862	22489	2439
0	47868	22489	2429
0	47874	22489	2419
0	47880	22489	2409
0	47886	22489	2399
0	47892	22489	2389
0	47898	22489	2379
0	47904	22489	2369
0	47910	22489	2359
0	47916	22489	2349
0	47922	22489	2339
0	47928	22489	2329
0	47934	22489	2319
0	47940	22489	2309
0	47946	22489	2299
0	47952	22489	2289
0	47958	22489	2279
0	47964	22489	2269
0	47970	22489	2259
0	47976	22489	2249
0	47982	22489	2239
0	47988	22489	2229
0	47994	22489	2219
0	48000	22489	2209
0	48006	22489	2199
0	48012	22489	2189
0	48018	22489	2179
0	48024	22489	2169
0	48030	22489	2159
0	48036	22489	2149
0	48042	22489	2139
0	48048	22489	2129
0	48054	22489	2119
0	48060	22489	2109
0	48066	22489	2099
0	48072	22489	2089
0	48078	22489	2079
0	48084	22489	2069
0	48090	22489	2059
0	48096	22489	2049
0	48102	22489	2039
0	48108	22489	2029
0	48114	22489	2019
0	48120	22489	2009
0	48126	22489	1999
0	48132	22489	1989
0	48138	22489	1979
0	48144	22489	1969
0	48150	22489	1959
0	48156	22489	1949
0	48162	22489	1939
0	48168	22489	1929
0	48174	22489	1919
0	48180	22489	1909
0	48186	22489	1899
0	48192	22489	1889
0	48198	22489	1879
0	48204	22489	1869
0	48210	22489	1859
0	48216	22489	1849
0	48222	22489	1839
0	48228	22489	1829
0	48234	22489	1819
0	48240	22489	1809
0	48246	22489	1799
0	48252	22489	1789
0	48258	22489	1779
0	48264	22489	1769
0	48270	22489	1759
0	48276	22489	1749
0	48282	22489	1739
0	48288	22489	1729
0	48294	22489	1719
0	48300	22489	1709
0	48306	22489	1699
0	48312	22489	1689
0	48318	22489	1679
0	48324	22489	1669
0	48330	22489	1659
0	48336	22489	1649
0	48342	22489	1639
0	48348	22489	1629
0	48354	22489	1619
0	48360	22489	1609
0	48366	22489	1599
0	48372	22489	1589
0	48378	22489	1579
0	48384	22489	1569
0	48390	22489	1559
0	48396	22489	1549
0	48402	22489	1539
0	48408	22489	1529
0	48414	22489	1519
0	48420	22489	1509
0	48426	22489	1499
0	48432	22489	1489
0	48438	22489	1479
0	48444	22489	1469
0	48450	22489	1459
0	48456	22489	1449
0	48462	22489	1439
0	48468	22489	1429
0	48474	22489	1419
0	48480	22489	1409
0	48486	22489	1399
0	48492	22489	1389
0	48498	22489	1379
0	48504	22489	1369
0	48510	22489	1359
0	48516	22489	1349
0	48522	22489	1339
0	48528	22489	1329
0	48534	22489	1319
0	48540	22489	1309
0	48546	22489	1299
0	48552	22489	1289
0	48558	22489	1279
0	48564	22489	1269
0	48570	22489	1259
0	48576	22489	1249
0	48582	22489	1239
0	48588	22489	1229
0	48594	22489	1219
0	48600	22489	1209
0	48606	22489	1199
0	48612	22489	1189
0	48618	22489	1179
0	48624	22489	1169
0	48630	22489	1159
0	48636	22489	1149
0	48642	22489	1139
0	48648	22489	1129
0	48654	22489	1119
0	48660	22489	1109
0	48666	22489	1099
0	48672	22489	1089
0	48678	22489	1079
0	48684	22489	1069
0	48690	22489	1059
0	48696	22489	1049
0	48702	22489	1039
0	48708	22489	1029
0	48714	22489	1019
0	48720	22489	1009
0	48726	22489	999
0	48732	22489	989
0	48738	22489	979
0	48744	22489	969
0	48750	22489	959
0	48756	22489	949
0	48762	22489	939
0	48768	22489	929
0	48774	22489	919
0	48780	22489	909
0	48786	22489	899
0	48792	22489	889
0	48798	22489	879
0	48804	22489	869
0	48810	22489	859
0	48816	22489	849
0	48822	22489	839
0	48828	22489	829
0	48834	22489	819
0	48840	22489	809
0	48859	22498	808
0	48878	22508	808
0	48897	22518	808
0	48916	22528	808
0	48935	22538	808
0	48954	22548	808
0	48973	22558	808
0	48993	22568	808
0	49012	22578	808
0	49031	22588	808
0	49050	22598	808
0	49069	22608	808
0	49088	22618	808
0	49107	22628	808
0	49126	22638	808
0	49145	22648	808
0	49164	22658	808
0	49183	22668	808
0	52921	24907	9017
0	52928	24907	9007
0	52934	24907	8997
0	52940	24907	8987
0	52946	24907	8977
0	52952	24907	8967
0	52958	24907	8957
0	52964	24907	8947
0	52970	24907	8937
0	52976	24907	8927
0	52982	24907	8917
0	52988	24907	8907
0	52994	24907	8897
0	53000	24907	8887
0	53006	24907	8877
0	53012	24907	8867
0	53018	24907	8857
0	53024	24907	8847
0	53030	24907	8837
0	53036	24907	8827
0	53042	24907	8817
0	53048	24907	8807
0	53054	24907	8797
0	53060	24907	8787
0	53066	24907	8777
0	53072	24907	8767
0	53078	24907	8757
0	53084	24907	8747
0	53090	24907	8737
0	53096	24907	8727
0	53102	24907	8717
0	53108	24907	8707
0	53114	24907	8697
0	53120	24907	8687
0	53126	24907	8677
0	53132	24907	8667
0	53138	24907	8657
0	53144	24907	8647
0	53150	24907	8637
0	53156	24907	8627
0	53162	24907	8617
0	53168	24907	8607
0	53174	24907	8597
0	53180	24907	8587
0	53186	24907	8577
0	53192	24907	8567
0	53198	24907	8557
0	53204	24907	8547
0	53210	24907	8537
0	53216	24907	8527
0	53222	24907	8517
0	53228	24907	8507
0	53234	24907	8497
0	53240	24907	8487
0	53246	24907	8477
0	53252	24907	8467
0	53258	24907	8457
0	53264	24907	8447
0	53270	24907	8437
0	53276	24907	8427
0	53282	24907	8417
0	53288	24907	8407
0	53294	24907	8397
0	53300	24907	8387
0	53306	24907	8377
0	53312	24907	8367
0	53318	24907	8357
0	53324	24907	8347
0	53330	24907	8337
0	53336	24907	8327
0	53342	24907	8317
0	53348	24907	8307
0	53354	24907	8297
0	53360	24907	8287
0	53366	24907	8277
0	53372	24907	8267
0	53378	24907	8257
0	53384	24907	8247
0	53390	24907	8237
0	53396	24907	8227
0	53402	24907	8217
0	53408	24907	8207
0	53414	24907	2227
0	53420	24907	2217
0	53426	24907	2207
0	53432	24907	2197
0	53438	24907	2187
0	53444	24907	2177
0	53450	24907	2167
0	53456	24907	2157
0	53462	24907	2147
0	53468	24907	2137
0	53474	24907	2127
0	53480	24907	2117
0	53486	24907	2107
0	53492	24907	2097
0	53498	24907	2087
0	53504	24907	2077
0	53510	24907	2067
0	53516	24907	2057
0	53522	24907	2047
0	53528	24907	2037
0	53534	24907	2027
0	53540	24907	2017
0	53546	24907	2007
0	53552	24907	1997
0	53558	24907	1987
0	53564	24907	1977
0	53570	24907	1967
0	53576	24907	1957
0	53582	24907	1947
0	53588	24907	1937
0	53594	24907	1927
0	53600	24907	1917
0	53606	24907	1907
0	53612	24907	1897
0	53618	24907	1887
0	53624	24907	1877
0	53630	24907	1867
0	53636	24907	1857
0	53642	24907	1847
0	53648	24907	1837
0	53654	24907	1827
0	53660	24907	1817
0	53666	24907	1807
0	53672	24907	1797
0	53678	24907	1787
0	53684	24907	1777
0	53690	24907	1767
0	53696	24907	1757
0	53702	24907	1747
0	53708	24907	1737
0	53714	24907	1727
0	53720	24907	1717
0	53726	24907	1707
0	53732	24907	1697
0	53738	24907	1687
0	53744	24907	1677
0	53750	24907	1667
0	53756	24907	1657
0	53762	24907	1647
0	53768	24907	1637
0	53774	24907	1627
0	53780	24907	1617
0	53786	24907	1607
0	53792	24907	1597
0	53798	24907	1587
0	53804	24907	1577
0	53810	24907	1567
0	53816	24907	1557
0	53822	24907	1547
0	53828	24907	1537
0	53834	24907	1527
0	53840	24907	1517
0	53846	24907	1507
0	53852	24907	1497
0	53858	24907	1487
0	53864	24907	1477
0	53870	24907	1467
0	53876	24907	1457
0	53882	24907	1447
0	53888	24907	1437
0	53894	24907	1427
0	53900	24907	1417
0	53906	24907	1407
0	53912	24907	1397
0	53918	24907	1387
0	53924	24907	1377
0	53930	24907	1367
0	53936	24907	1357
0	53942	24907	1347
0	53948	24907	1337
0	53954	24907	1327
0	53960	24907	1317
0	53966	24907	1307
0	53972	24907	1297
0	53978	24907	1287
0	53984	24907	1277
0	53990	24907	1267
0	53996	24907	1257
0	54002	24907	1247
0	54008	24907	1237
0	54014	24907	1227
0	54020	24907	1217
0	54026	24907	1207
0	54032	24907	1197
0	54038	24907	1187
0	54044	24907	1177
0	54050	24907	1167
0	54056	24907	1157
0	54062	24907	1147
0	54068	24907	1137
0	54074	24907	1127
0	54080	24907	1117
0	54086	24907	1107
0	54092	24907	1097
0	54098	24907	1087
0	54104	24907	1077
0	54110	24907	1067
0	54116	24907	1057
0	54122	24907	1047
0	54128	24907	1037
0	54134	24907	1027
0	54140	24907	1017
0	54146	24907	1007
0	54152	24907	997
0	54158	24907	987
0	54164	24907	977
0	54170	24907	967
0	54176	24907	957
0	54182	24907	947
0	54188	24907	937
0	54194	24907	927
0	54200	24907	917
0	54206	24907	907
0	54212	24907	897
0	54218	24907	887
0	54224	24907	877
0	54230	24907	867
0	54236	24907	857
0	54242	24907	847
0	54248	24907	837
0	54254	24907	827
0	54278	24914	824
0	54304	24924	824
0	54328	24934	824
0	54351	24944	824
0	54374	24954	824
0	54397	24964	824
0	54420	24974	824
0	54443	24984	824
0	54466	24994	824
0	54489	25004	824
0	54512	25014	824
0	54535	25024	824
0	54558	25034	824
0	54581	25044	824
0	54604	25054	824
0	54627	25064	824
0	54650	25074	824
0	54673	25084	824
0	54696	25094	824
0	54719	25104	824
0	54742	25114	824
0	54765	25124	824
0	54788	25134	824
0	54811	25144	824
0	54834	25154	824
0	54857	25164	824
0	54880	25174	824
0	54903	25184	824
0	54926	25194	824
0	54949	25204	824
0	54973	25214	824
0	54996	25224	824
0	57463	26094	1684
0	57469	26094	1674
0	57475	26094	1664
0	57481	26094	1654
0	57487	26094	1644
0	57493	26094	1634
0	57499	26094	1624
0	57505	26094	1614
0	57511	26094	1604
0	57517	26094	1594
0	57523	26094	1584
0	57529	26094	1574
0	57535	26094	1564
0	57541	26094	1554
0	57547	26094	1544
0	57553	26094	1534
0	57559	26094	1524
0	57565	26094	1514
0	57571	26094	1504
0	57577	26094	1494
0	57583	26094	1484
0	57589	26094	1474
0	57595	26094	1464
0	57601	26094	1454
0	57607	26094	1444
0	57613	26094	1434
0	57619	26094	1424
0	57625	26094	1414
0	57631	26094	1404
0	57637	26094	1394
0	57643	26094	1384
0	57649	26094	1374
0	57655	26094	1364
0	57661	26094	1354
0	57667	26094	1344
0	57673	26094	1334
0	57679	26094	1324
0	57685	26094	1314
0	57691	26094	1304
0	57697	26094	1294
0	57703	26094	1284
0	57709	26094	1274
0	57715	26094	1264
0	57721	26094	1254
0	57727	26094	1244
0	57733	26094	1234
0	57739	26094	1224
0	57745	26094	1214
0	57751	26094	1204
0	57757	26094	1194
0	57763	26094	1184
0	57769	26094	1174
0	57775	26094	1164
0	57781	26094	1154
0	57787	26094	1144
0	57793	26094	1134
0	57799	26094	1124
0	57805	26094	1114
0	57811	26094	1104
0	57817	26094	1094
0	57823	26094	1084
0	57829	26094	1074
0	57835	26094	1064
0	57841	26094	1054
0	57847	26094	1044
0	57853	26094	1034
0	57859	26094	1024
0	57865	26094	1014
0	57871	26094	1004
0	57877	26094	994
0	57883	26094	984
0	57889	26094	974
0	57895	26094	964
0	57901	26094	954
0	57907	26094	944
0	57913	26094	934
0	57919	26094	924
0	57925	26094	914
0	57931	26094	904
0	57937	26094	894
0	57943	26094	884
0	57949	26094	874
0	57955	26094	864
0	57961	26094	854
0	57985	26104	854
0	58009	26114	854
0	58033	26124	854
0	58057	26134	854
0	58081	26144	854
0	58105	26154	854
0	58129	26164	854
0	58153	26174	854
0	58177	26184	854
0	58201	26194	854
0	58225	26204	854
0	58249	26214	854
0	58275	26224	854
0	58299	26234	854
0	58323	26244	854
0	58347	26254	854
0	58371	26264	854
0	58395	26274	854
0	58419	26284	854
0	58443	26294	854
0	58467	26304	854
0	58491	26314	854
0	58515	26324	854
0	58540	26334	854
0	58564	26344	854
0	58588	26354	854
0	58612	26364	854
0	58636	26374	854
0	58660	26384	854
0	58684	26394	854
0	58708	26404	854
0	58732	26414	854
0	58756	26424	854
0	58780	26434	854
0	58804	26444	854
0	58828	26454	854
0	58852	26464	854
0	58878	26474	854
0	58903	26484	854
0	58928	26494	854
0	58953	26504	854
0	58978	26514	854
0	59003	26524	854
0	59028	26534	854
0	59053	26544	854
0	59078	26554	854
0	59103	26564	854
0	59128	26574	854
0	59153	26584	854
0	59178	26594	854
0	59203	26604	854
0	59228	26614	854
0	59253	26624	854
0	59278	26634	854
0	59303	26644	854
0	59328	26654	854
0	59353	26664	854
0	59378	26674	854
0	59403	26684	854
0	59428	26694	854
0	59453	26704	854
0	59480	26714	854
0	59505	26724	854
0	59530	26734	854
0	59555	26744	854
0	59580	26754	854
0	59605	26764	854
0	59630	26774	854
0	59655	26784	854
0	59680	26794	854
0	59705	26804	854
0	59733	26814	854
0	59759	26824	854
0	59786	26834	854
0	59812	26844	854
0	59838	26854	854
0	59864	26864	854
0	60042	26870	5000
0	60056	26870	4990
0	60063	26870	4980
0	60069	26870	4970
0	60075	26870	4960
0	60081	26870	4950
0	60087	26870	4940
0	60093	26870	4930
0	60099	26870	4920
0	60105	26870	4910
0	60111	26870	4900
0	60117	26870	4890
0	60123	26870	4880
0	60129	26870	4870
0	60135	26870	4860
0	60141	26870	4850
0	60147	26870	4840
0	60153	26870	4830
0	60159	26870	4820
0	60165	26870	4810
0	60171	26870	4800
0	60177	26870	4790
0	60183	26870	4780
0	60189	26870	4770
0	60195	26870	4760
0	60201	26870	4750
0	60207	26870	4740
0	60213	26870	4730
0	60219	26870	4720
0	60225	26870	4710
0	60231	26870	4700
0	60237	26870	4690
0	60243	26870	4680
0	60249	26870	4670
0	60255	26870	4660
0	60261	26870	4650
0	60267	26870	4640
0	60273	26870	4630
0	60279	26870	4620
0	60285	26870	4610
0	60291	26870	4600
0	60297	26870	4590
0	60303	26870	4580
0	60309	26870	4570
0	60315	26870	4560
0	60321	26870	4550
0	60327	26870	4540
0	60333	26870	4530
0	60339	26870	4520
0	60345	26870	4510
0	60351	26870	4500
0	60357	26870	4490
0	60363	26870	4480
0	60369	26870	4470
0	60375	26870	4460
0	60381	26870	4450
0	60387	26870	4440
0	60393	26870	4430
0	60399	26870	4420
0	60405	26870	4410
0	60411	26870	4400
0	60417	26870	4390
0	60423	26870	4380
0	60429	26870	4370
0	60435	26870	4360
0	60441	26870	4350
0	60447	26870	4340
0	60453	26870	4330
0	60459	26870	4320
0	60465	26870	4310
0	60471	26870	4300
0	60477	26870	4290
0	60483	26870	4280
0	60489	26870	4270
0	60495	26870	4260
0	60501	26870	4250
0	60507	26870	4240
0	60513	26870	4230
0	60519	26870	4220
0	60525	26870	4210
0	60531	26870	4200
0	60540	26874	854
0	60566	26884	854
0	60592	26894	854
0	60618	26904	854
0	60644	26914	854
0	60670	26924	854
0	60696	26934	854
0	60722	26944	854
0	60748	26954	854
0	60774	26964	854
0	60800	26974	854
0	60826	26984	854
0	60852	26994	854
0	60878	27004	854
0	60904	27014	854
0	60930	27024	854
0	60956	27034	854
0	60982	27044	854
0	61008	27054	854
0	61034	27064	854
0	61060	27074	854
0	61086	27084	854
0	61112	27094	854
0	61138	27104	854
0	61164	27114	854
0	61190	27124	854
0	61216	27134	854
0	61242	27144	854
0	61269	27154	854
0	61294	27164	854
0	61319	27174	854
0	61344	27184	854
0	61369	27194	854
0	61394	27204	854
0	61419	27214	854
0	61444	27224	854
0	61469	27234	854
0	61494	27244	854
0	61519	27254	854
0	61544	27264	854
0	61569	27274	854
0	61594	27284	854
0	61619	27294	854
0	61644	27304	854
0	61669	27314	854
0	61694	27324	854
0	61719	27334	854
0	61744	27344	854
0	61769	27354	854
0	61794	27364	854
0	61819	27374	854
0	61844	27384	854
0	61869	27394	854
0	61894	27404	854
0	61918	27414	854
0	61942	27424	854
0	61966	27434	854
0	61990	27444	854
0	62014	27454	854
0	62038	27464	854
0	62062	27474	854
0	62086	27484	854
0	62110	27494	854
0	62134	27504	854
0	62158	27514	854
0	62182	27524	854
0	62206	27534	854
0	62230	27544	854
0	62254	27554	854
0	62279	27564	854
0	62302	27574	854
0	62325	27584	854
0	62348	27594	854
0	62371	27604	854
0	62394	27614	854
0	62417	27624	854
0	62440	27634	854
0	62463	27644	854
0	62489	27654	854
0	62511	27664	854
0	62535	27674	854
0	62558	27684	854
0	62581	27694	854
0	62604	27704	854
0	62627	27714	854
0	62650	27724	854
0	62670	27734	854
0	62690	27744	854
0	62710	27754	854
0	62731	27764	854
0	62757	27774	854
0	62783	27784	854
0	62809	27794	854
0	62835	27804	854
0	62861	27814	854
0	62887	27824	854
0	62913	27834	854
0	62939	27844	854
0	62965	27854	854
0	62991	27864	854
0	63017	27874	854
0	63043	27884	854
0	63069	27894	854
0	63095	27904	854
0	63121	27914	854
0	63147	27924	854
0	63173	27934	854
0	63199	27944	854
0	63225	27954	854
0	63251	27964	854
0	63277	27974	854
0	63303	27984	854
0	63329	27994	854
0	63355	28004	854
0	63381	28014	854
0	63407	28024	854
0	63433	28034	854
0	63459	28044	854
0	63485	28054	854
0	63511	28064	854
0	63537	28074	854
0	63563	28084	854
0	63589	28094	854
0	63615	28104	854
0	63641	28114	854
0	63667	28124	854
0	63693	28134	854
0	63719	28144	854
0	63745	28154	854
0	63771	28164	854
0	63797	28174	854
0	63823	28184	854
0	63849	28194	854
0	63875	28204	854
0	63901	28214	854
0	63927	28224	854
0	63955	28234	854
0	63982	28244	854
0	64009	28254	854
0	64036	28264	854
0	64063	28274	854
0	64090	28284	854
0	64117	28294	854
0	64144	28304	854
0	64171	28314	854
0	64198	28324	854
0	64225	28334	854
0	64252	28344	854
0	64279	28354	854
0	64306	28364	854
0	64333	28374	854
0	64360	28384	854
0	64387	28394	854
0	64414	28404	854
0	64441	28414	854
0	64468	28424	854
0	64495	28434	854
0	64522	28444	854
0	64549	28454	854
0	64576	28464	854
0	64603	28474	854
0	64630	28484	854
0	64657	28494	854
0	64684	28504	854
0	64711	28514	854
0	64738	28524	854
0	64765	28534	854
0	64792	28544	854
0	64819	28554	854
0	64846	28564	854
0	64873	28574	854
0	72424	32336	3756
0	72432	32336	3746
0	72438	32336	3736
0	72444	32336	3726
0	72450	32336	3716
0	72456	32336	3706
0	72462	32336	3696
0	72468	32336	3686
0	72474	32336	3676
0	72480	32336	3666
0	72486	32336	3656
0	72492	32336	3646
0	72498	32336	3636
0	72504	32336	3626
0	72510	32336	3616
0	72516	32336	3606
0	72522	32336	3596
0	72528	32336	3586
0	72534	32336	3576
0	72540	32336	3566
0	72546	32336	3556
0	72552	32336	3546
0	72558	32336	3536
0	72564	32336	3526
0	72570	32336	3516
0	72576	32336	3506
0	72582	32336	3496
0	72588	32336	3486
0	72594	32336	3476
0	72600	32336	3466
0	72606	32336	3456
0	72612	32336	3446
0	72618	32336	3436
0	72624	32336	3426
0	72630	32336	3416
0	72636	32336	3406
0	72642	32336	3396
0	72648	32336	3386
0	72654	32336	3376
0	72660	32336	3366
0	72666	32336	3356
0	72672	32336	3346
0	72678	32336	3336
0	72684	32336	3326
0	72690	32336	3316
0	72696	32336	3306
0	72702	32336	3296
0	72708	32336	3286
0	72714	32336	3276
0	72720	32336	3266
0	72726	32336	3256
0	72732	32336	3246
0	72738	32336	3236
0	72744	32336	3226
0	72750	32336	3216
0	72756	32336	3206
0	72762	32336	3196
0	72768	32336	3186
0	72774	32336	3176
0	72780	32336	3166
0	72786	32336	3156
0	72792	32336	3146
0	72798	32336	3136
0	72804	32336	3126
0	72810	32336	3116
0	72816	32336	3106
0	72822	32336	3096
0	72828	32336	3086
0	72834	32336	3076
0	72840	32336	3066
0	72846	32336	3056
0	72852	32336	3046
0	72858	32336	3036
0	72864	32336	3026
0	72870	32336	3016
0	72876	32336	3006
0	72882	32336	2996
0	72888	32336	2986
0	72894	32336	2976
0	72900	32336	2966
0	72906	32336	2956
0	72912	32336	2946
0	72918	32336	2936
0	72924	32336	2926
0	72930	32336	2916
0	72936	32336	2906
0	72942	32336	2896
0	72948	32336	2886
0	72954	32336	2876
0	72960	32336	2866
0	72966	32336	2856
0	72972	32336	2846
0	72978	32336	2836
0	72984	32336	2826
0	72990	32336	2816
0	72996	32336	2806
0	73002	32336	2796
0	73008	32336	2786
0	73014	32336	2776
0	73020	32336	2766
0	73026	32336	2756
0	73032	32336	2746
0	73038	32336	2736
0	73044	32336	2726
0	73050	32336	2716
0	73056	32336	2706
0	73062	32336	2696
0	73068	32336	2686
0	73074	32336	2676
0	73080	32336	2666
0	73086	32336	2656
0	73092	32336	2646
0	73098	32336	2636
0	73104	32336	2626
0	73110	32336	2616
0	73116	32336	2606
0	73122	32336	2596
0	73128	32336	2586
0	73134	32336	2576
0	73140	32336	2566
0	73146	32336	2556
0	73152	32336	2546
0	73158	32336	2536
0	73164	32336	2526
0	73170	32336	2516
0	73176	32336	2506
0	73182	32336	2496
0	73188	32336	2486
0	73194	32336	2476
0	73200	32336	2466
0	73206	32336	2456
0	73212	32336	2446
0	73218	32336	2436
0	73224	32336	2426
0	73230	32336	2416
0	73236	32336	2406
0	73242	32336	2396
0	73248	32336	2386
0	73254	32336	2376
0	73260	32336	2366
0	73266	32336	2356
0	73272	32336	2346
0	73278	32336	2336
0	73284	32336	2326
0	73290	32336	2316
0	73296	32336	2306
0	73302	32336	2296
0	73308	32336	2286
0	73314	32336	2276
0	73320	32336	2266
0	73326	32336	2256
0	73332	32336	2246
0	73338	32336	2236
0	73344	32336	2226
0	73350	32336	2216
0	73356	32336	2206
0	73362	32336	2196
0	73368	32336	2186
0	73374	32336	2176
0	73380	32336	2166
0	73386	32336	2156
0	73392	32336	2146
0	73398	32336	2136
0	73404	32336	2126
0	73410	32336	2116
0	73416	32336	2106
0	73422	32336	2096
0	73428	32336	2086
0	73434	32336	2076
0	73440	32336	2066
0	73446	32336	2056
0	73452	32336	2046
0	73458	32336	2036
0	73464	32336	2026
0	73470	32336	2016
0	73476	32336	2006
0	73482	32336	1996
0	73488	32336	1986
0	73494	32336	1976
0	73500	32336	1966
0	73506	32336	1956
0	73512	32336	1946
0	73518	32336	1936
0	73524	32336	1926
0	73530	32336	1916
0	73536	32336	1906
0	73542	32336	1896
0	73548	32336	1886
0	73554	32336	1876
0	73560	32336	1866
0	73566	32336	1856
0	73572	32336	1846
0	73578	32336	1836
0	73584	32336	1826
0	73590	32336	1816
0	73596	32336	1806
0	73602	32336	1796
0	73608	32336	1786
0	73614	32336	1776
0	73620	32336	1766
0	73626	32336	1756
0	73632	32336	1746
0	73638	32336	1736
0	73644	32336	1726
0	73650	32336	1716
0	73656	32336	1706
0	73662	32336	1696
0	73668	32336	1686
0	73674	32336	1676
0	73680	32336	1666
0	73686	32336	1656
0	73692	32336	1646
0	73698	32336	1636
0	73704	32336	1626
0	73710	32336	1616
0	73716	32336	1606
0	73722	32336	1596
0	73728	32336	1586
0	73734	32336	1576
0	73740	32336	1566
0	73746	32336	1556
0	73752	32336	1546
0	73758	32336	1536
0	73764	32336	1526
0	73770	32336	1516
0	73776	32336	1506
0	73782	32336	1496
0	73788	32336	1486
0	73794	32336	1476
0	73800	32336	1466
0	73806	32336	1456
0	73812	32336	1446
0	73818	32336	1436
0	73824	32336	1426
0	73830	32336	1416
0	73836	32336	1406
0	73842	32336	1396
0	73848	32336	1386
0	73854	32336	1376
0	73860	32336	1366
0	73866	32336	1356
0	73872	32336	1346
0	73878	32336	1336
0	73884	32336	1326
0	73890	32336	1316
0	73896	32336	1306
0	73902	32336	1296
0	73908	32336	1286
0	73914	32336	1276
0	73920	32336	1266
0	73926	32336	1256
0	73932	32336	1246
0	73938	32336	1236
0	73944	32336	1226
0	73950	32336	1216
0	73956	32336	1206
0	73962	32336	4606
0	73968	32336	4596
0	73974	32336	4586
0	73980	32336	4576
0	73986	32336	4566
0	73992	32336	4556
0	73998	32336	4546
0	74004	32336	4536
0	74010	32336	4526
0	74016	32336	4516
0	74022	32336	4506
0	74028	32336	4496
0	74034	32336	4486
0	74040	32336	4476
0	74046	32336	4466
0	74052	32336	4456
0	74058	32336	4446
0	74064	32336	4436
0	74070	32336	4426
0	74076	32336	4416
0	74082	32336	4406
0	74088	32336	4396
0	74094	32336	4386
0	74100	32336	4376
0	74106	32336	4366
0	74112	32336	4356
0	74118	32336	4346
0	74124	32336	4336
0	74130	32336	4326
0	74136	32336	4316
0	74142	32336	4306
0	74148	32336	4296
0	74154	32336	4286
0	74160	32336	4276
0	74166	32336	4266
0	74172	32336	4256
0	74178	32336	4246
0	74184	32336	4236
0	74190	32336	4226
0	74196	32336	4216
0	74202	32336	4206
0	74208	32336	4196
0	74214	32336	4186
0	74220	32336	4176
0	74226	32336	4166
0	74232	32336	4156
0	74238	32336	4146
0	74244	32336	4136
0	74250	32336	4126
0	74256	32336	4116
0	74262	32336	4106
0	74268	32336	4096
0	74274	32336	4086
0	74280	32336	4076
0	74286	32336	4066
0	74292	32336	4056
0	74298	32336	4046
0	74304	32336	4036
0	74310	32336	4026
0	74316	32336	4016
0	74322	32336	4006
0	74328	32336	3996
0	74334	32336	3986
0	74340	32336	3976
0	74346	32336	3966
0	74352	32336	3956
0	74358	32336	3946
0	74364	32336	3936
0	74370	32336	3926
0	74376	32336	3916
0	74382	32336	3906
0	74388	32336	3896
0	74394	32336	3886
0	74400	32336	3876
0	74406	32336	3866
0	74412	32336	3856
0	74418	32336	3846
0	74424	32336	3836
0	74430	32336	3826
0	74436	32336	3816
0	74442	32336	3806
0	74448	32336	3796
0	74454	32336	3786
0	74460	32336	3776
0	74466	32336	3766
0	74472	32336	1196
0	74478	32336	1186
0	74484	32336	1176
0	74490	32336	1166
0	74496	32336	1156
0	74502	32336	1146
0	74508	32336	1136
0	74514	32336	1126
0	74520	32336	1116
0	74526	32336	1106
0	74532	32336	1096
0	74538	32336	1086
0	74544	32336	1076
0	74550	32336	1066
0	74556	32336	1056
0	74562	32336	1046
0	74568	32336	1036
0	74574	32336	1026
0	74580	32336	1016
0	74586	32336	1006
0	74592	32336	996
0	74598	32336	986
0	74604	32336	976
0	74610	32336	966
0	74616	32336	956
0	74622	32336	946
0	74628	32336	936
0	74634	32336	926
0	74640	32336	916
0	74646	32336	906
0	74652	32336	896
0	74658	32336	886
0	74664	32336	876
0	74670	32336	866
0	74676	32336	856
0	74682	32336	846
0	74688	32336	836
0	74694	32336	826
0	74700	32336	816
0	74709	32338	808
0	74740	32348	808
0	74771	32358	808
0	74802	32368	808
0	74833	32378	808
0	74865	32388	808
0	74896	32398	808
0	74927	32408	808
0	74958	32418	808
0	74989	32428	808
0	75020	32438	808
0	75051	32448	808
0	75082	32458	808
0	75113	32468	808
0	75144	32478	808
0	75175	32488	808
0	75206	32498	808
0	75237	32508	808
0	75268	32518	808
0	75299	32528	808
0	75330	32538	808
0	75361	32548	808
0	75392	32558	808
0	75423	32568	808
0	75454	32578	808
0	75485	32588	808
0	75516	32598	808
0	75547	32608	808
0	75915	33126	1316
0	75924	33126	1306
0	75930	33126	1296
0	75936	33126	1286
0	75942	33126	1276
0	75948	33126	1266
0	75954	33126	1256
0	75960	33126	1246
0	75966	33126	1236
0	75972	33126	1226
0	75978	33126	1216
0	75984	33126	1206
0	75990	33126	1196
0	75996	33126	1186
0	76002	33126	1176
0	76008	33126	1166
0	76014	33126	1156
0	76020	33126	1146
0	76026	33126	1136
0	76032	33126	1126
0	76038	33126	1116
0	76044	33126	1106
0	76050	33126	1096
0	76056	33126	1086
0	76062	33126	1076
0	76068	33126	1066
0	76074	33126	1056
0	76080	33126	1046
0	76086	33126	1036
0	76092	33126	1026
0	76098	33126	1016
0	76104	33126	1006
0	76110	33126	996
0	76116	33126	986
0	76122	33126	976
0	76128	33126	966
0	76134	33126	956
0	76140	33126	946
0	76146	33126	936
0	76152	33126	926
0	76158	33126	916
0	76164	33126	906
0	76170	33126	896
0	76176	33126	886
0	76182	33126	876
0	76188	33126	866
0	76194	33126	856
0	76200	33126	846
0	76206	33126	836
0	76212	33126	826
0	76218	33126	816
0	76227	33128	808
0	76241	33138	808
0	76255	33148	808
0	76269	33158	808
0	76283	33168	808
0	76297	33178	808
0	76311	33188	808
0	76325	33198	808
0	76339	33208	808
0	76353	33218	808
0	76367	33228	808
0	76381	33238	808
0	76395	33248	808
0	76409	33258	808
0	76423	33268	808
0	76437	33278	808
0	76453	33288	808
0	76467	33298	808
0	76481	33308	808
0	76495	33318	808
0	76509	33328	808
0	76523	33338	808
0	76537	33348	808
0	76551	33358	808
0	76565	33368	808
0	76579	33378	808
0	76593	33388	808
0	76607	33398	808
0	76621	33408	808
0	76635	33418	808
0	76649	33428	808
0	76663	33438	808
0	77038	34851	2211
0	77044	34851	2201
0	77050	34851	2191
0	77056	34851	2181
0	77062	34851	2171
0	81553	36383	3693
0	81560	36383	3683
0	81566	36383	3673
0	81572	36383	3663
0	81578	36383	3653
0	81584	36383	3643
0	81590	36383	3633
0	81596	36383	3623
0	81602	36383	3613
0	81608	36383	3603
0	81614	36383	3593
0	81620	36383	3583
0	81626	36383	3573
0	81632	36383	3563
0	81638	36383	3553
0	81644	36383	3543
0	81650	36383	3533
0	81656	36383	3523
0	81662	36383	3513
0	81668	36383	3503
0	81674	36383	3493
0	81680	36383	3483
0	81686	36383	3473
0	81692	36383	3463
0	81698	36383	3453
0	81704	36383	3443
0	81710	36383	3433
0	81716	36383	3423
0	81722	36383	3413
0	81728	36383	3403
0	81734	36383	3393
0	81740	36383	3383
0	81746	36383	3373
0	81752	36383	3363
0	81758	36383	3353
0	81764	36383	3343
0	81770	36383	3333
0	81776	36383	3323
0	81782	36383	3313
0	81788	36383	3303
0	81794	36383	3293
0	81800	36383	3283
0	81806	36383	3273
0	81812	36383	3263
0	81818	36383	3253
0	81824	36383	3243
0	81830	36383	3233
0	81836	36383	3223
0	81842	36383	3213
0	81848	36383	3203
0	81854	36383	3193
0	81860	36383	3183
0	81866	36383	3173
0	81872	36383	3163
0	81878	36383	3153
0	81884	36383	3143
0	81890	36383	3133
0	81896	36383	3123
0	81902	36383	3113
0	81908	36383	3103
0	81914	36383	3093
0	81920	36383	3083
0	81926	36383	3073
0	81932	36383	3063
0	81938	36383	3053
0	81944	36383	3043
0	81950	36383	3033
0	81956	36383	3023
0	81962	36383	3013
0	81968	36383	3003
0	81974	36383	2993
0	81980	36383	2983
0	81986	36383	2973
0	81992	36383	2963
0	81998	36383	2953
0	82004	36383	2943
0	82010	36383	2933
0	82016	36383	2923
0	82022	36383	2913
0	82028	36383	2903
0	82034	36383	2893
0	82040	36383	2883
0	82046	36383	2873
0	82052	36383	2863
0	82058	36383	2853
0	82064	36383	2843
0	82070	36383	2833
0	82076	36383	2823
0	82082	36383	2813
0	82088	36383	2803
0	82094	36383	2793
0	82100	36383	2783
0	82106	36383	2773
0	82112	36383	2763
0	82118	36383	2753
0	82124	36383	2743
0	82130	36383	2733
0	82136	36383	2723
0	82142	36383	2713
0	82148	36383	2703
0	82154	36383	2693
0	82160	36383	2683
0	82166	36383	2673
0	82172	36383	2663
0	82178	36383	2653
0	82184	36383	2643
0	82190	36383	2633
0	82196	36383	2623
0	82202	36383	2613
0	82208	36383	2603
0	82214	36383	2593
0	82220	36383	2583
0	82226	36383	2573
0	82232	36383	2563
0	82238	36383	2553
0	82244	36383	2543
0	82250	36383	2533
0	82256	36383	2523
0	82262	36383	2513
0	82268	36383	2503
0	82274	36383	2493
0	82280	36383	2483
0	82286	36383	2473
0	82292	36383	2463
0	82298	36383	2453
0	82304	36383	2443
0	82310	36383	2433
0	82316	36383	2423
0	82322	36383	2413
0	82328	36383	2403
0	82334	36383	2393
0	82340	36383	2383
0	82346	36383	2373
0	82352	36383	2363
0	82358	36383	2353
0	82364	36383	2343
0	82370	36383	2333
0	82376	36383	2323
0	82382	36383	2313
0	82388	36383	2303
0	82394	36383	2293
0	82400	36383	2283
0	82406	36383	2273
0	82412	36383	2263
0	82418	36383	2253
0	82424	36383	2243
0	82430	36383	2233
0	82436	36383	2223
0	82442	36383	2213
0	82448	36383	2203
0	82454	36383	2193
0	82460	36383	2183
0	82466	36383	2173
0	82472	36383	2163
0	82478	36383	2153
0	82484	36383	2143
0	82490	36383	2133
0	82496	36383	2123
0	82502	36383	2113
0	82508	36383	2103
0	82514	36383	2093
0	82520	36383	2083
0	82526	36383	2073
0	82532	36383	2063
0	82538	36383	2053
0	82544	36383	2043
0	82550	36383	2033
0	82556	36383	2023
0	82562	36383	2013
0	82568	36383	2003
0	82574	36383	1993
0	82580	36383	1983
0	82586	36383	1973
0	82592	36383	1963
0	82598	36383	1953
0	82604	36383	1943
0	82610	36383	1933
0	82616	36383	1923
0	82622	36383	1913
0	82628	36383	1903
0	82634	36383	1893
0	82640	36383	1883
0	82646	36383	1873
0	82652	36383	1863
0	82658	36383	1853
0	82664	36383	1843
0	82670	36383	1833
0	82676	36383	1823
0	82682	36383	1813
0	82688	36383	1803
0	82694	36383	1793
0	82700	36383	1783
0	82706	36383	1773
0	82712	36383	1763
0	82718	36383	1753
0	82724	36383	1743
0	82730	36383	1733
0	82736	36383	1723
0	82742	36383	1713
0	82748	36383	1703
0	82754	36383	1693
0	82760	36383	1683
0	82766	36383	1673
0	82772	36383	1663
0	82778	36383	1653
0	82784	36383	1643
0	82790	36383	1633
0	82796	36383	1623
0	82802	36383	1613
0	82808	36383	1603
0	82814	36383	1593
0	82820	36383	1583
0	82826	36383	1573
0	82832	36383	1563
0	82838	36383	1553
0	82844	36383	1543
0	82850	36383	1533
0	82856	36383	1523
0	82862	36383	1513
0	82868	36383	1503
0	82874	36383	1493
0	82880	36383	1483
0	82886	36383	1473
0	82892	36383	1463
0	82898	36383	1453
0	82904	36383	1443
0	82910	36383	1433
0	82916	36383	1423
0	82922	36383	1413
0	82928	36383	1403
0	82934	36383	1393
0	82940	36383	1383
0	82946	36383	1373
0	82952	36383	1363
0	82958	36383	1353
0	82964	36383	1343
0	82970	36383	1333
0	82976	36383	1323
0	82982	36383	1313
0	82988	36383	1303
0	82994	36383	1293
0	83000	36383	1283
0	83006	36383	1273
0	83012	36383	1263
0	83018	36383	1253
0	83024	36383	1243
0	83030	36383	1233
0	83036	36383	1223
0	83042	36383	1213
0	83048	36383	1203
0	83054	36383	1193
0	83060	36383	1183
0	83066	36383	1173
0	83072	36383	1163
0	83078	36383	1153
0	83084	36383	1143
0	83090	36383	1133
0	83096	36383	1123
0	83102	36383	1113
0	83108	36383	1103
0	83114	36383	1093
0	83120	36383	1083
0	83126	36383	1073
0	83132	36383	1063
0	83138	36383	1053
0	83144	36383	1043
0	83150	36383	1033
0	83156	36383	1023
0	83162	36383	1013
0	83168	36383	1003
0	83174	36383	993
0	83180	36383	983
0	83186	36383	973
0	83192	36383	963
0	83198	36383	953
0	83204	36383	943
0	83210	36383	933
0	83216	36383	923
0	83222	36383	913
0	83228	36383	903
0	83234	36383	893
0	83240	36383	883
0	83246	36383	873
0	83252	36383	863
0	83263	36384	854
0	83292	36394	854
0	83321	36404	854
0	83350	36414	854
0	83379	36424	854
0	83408	36434	854
0	83437	36444	854
0	83466	36454	854
0	83495	36464	854
0	83524	36474	854
0	83553	36484	854
0	83582	36494	854
0	83611	36504	854
0	83640	36514	854
0	83671	36524	854
0	83701	36534	854
0	83731	36544	854
0	83761	36554	854
0	83791	36564	854
0	83821	36574	854
0	83853	36584	854
0	83883	36594	854
0	83913	36604	854
0	83943	36614	854
0	83973	36624	854
0	84004	36634	854
0	84034	36644	854
0	84064	36654	854
0	84094	36664	854
0	84124	36674	854
0	84154	36684	854
0	84184	36694	854
0	84214	36704	854
0	84244	36714	854
0	84274	36724	854
0	84304	36734	854
0	84334	36744	854
0	84364	36754	854
0	84394	36764	854
0	84424	36774	854
0	84454	36784	854
0	84486	36794	854
0	84517	36804	854
0	84548	36814	854
0	84579	36824	854
0	84610	36834	854
0	84641	36844	854
0	84669	36854	854
0	84697	36864	854
0	84725	36874	854
0	84753	36884	854
0	84781	36894	854
0	84809	36904	854
0	84837	36914	854
0	84865	36924	854
0	84893	36934	854
0	84921	36944	854
0	84949	36954	854
0	84977	36964	854
0	85005	36974	854
0	85033	36984	854
0	85061	36994	854
0	85089	37004	854
0	85117	37014	854
0	85145	37024	854
0	85173	37034	854
0	85201	37044	854
0	85229	37054	854
0	85257	37064	854
0	85285	37074	854
0	85313	37084	854
0	85344	37094	854
0	85372	37104	854
0	85400	37114	854
0	85428	37124	854
0	85456	37134	854
0	85484	37144	854
0	85512	37154	854
0	85540	37164	854
0	85568	37174	854
0	85596	37184	854
0	85624	37194	854
0	85652	37204	854
0	85680	37214	854
0	85708	37224	854
0	85736	37234	854
0	85764	37244	854
0	85792	37254	854
0	85820	37264	854
0	85848	37274	854
0	85876	37284	854
0	85904	37294	854
0	85932	37304	854
0	85960	37314	854
0	85988	37324	854
0	86018	37334	854
0	86046	37344	854
0	86074	37354	854
0	86102	37364	854
0	86130	37374	854
0	86158	37384	854
0	86186	37394	854
0	86214	37404	854
0	86242	37414	854
0	86270	37424	854
0	86298	37434	854
0	86326	37444	854
0	86354	37454	854
0	86382	37464	854
0	86410	37474	854
0	86438	37484	854
0	86466	37494	854
0	86494	37504	854
0	86522	37514	854
0	86550	37524	854
0	86578	37534	854
0	86606	37544	854
0	86634	37554	854
0	86662	37564	854
0	86690	37574	854
0	86718	37584	854
0	86746	37594	854
0	86774	37604	854
0	86802	37614	854
0	86830	37624	854
0	86858	37634	854
0	86886	37644	854
0	86914	37654	854
0	86926	37658	808
0	86953	37664	854
0	86965	37668	808
0	86992	37674	854
0	87004	37678	808
0	87031	37684	854
0	87043	37688	808
0	87070	37694	854
0	87082	37698	808
0	87109	37708	808
0	87136	37718	808
0	87163	37728	808
0	87190	37738	808
0	87217	37748	808
0	87244	37758	808
0	87271	37768	808
0	87297	37778	808
0	87323	37788	808
0	87349	37798	808
0	87375	37808	808
0	87401	37818	808
0	87427	37828	808
0	87453	37838	808
0	87479	37848	808
0	87505	37858	808
0	87531	37868	808
0	87557	37878	808
0	87583	37888	808
0	87609	37898	808
0	87635	37908	808
0	87661	37918	808
0	87687	37928	808
0	87713	37938	808
0	87741	37948	808
0	87768	37958	808
0	87795	37968	808
0	87822	37978	808
0	87849	37988	808
0	87877	37998	808
0	87905	38008	808
0	87932	38018	808
0	87959	38028	808
0	87986	38038	808
0	88013	38048	808
0	88040	38058	808
0	88067	38068	808
0	88094	38078	808
0	88121	38088	808
0	88148	38098	808
0	88175	38108	808
0	88203	38118	808
0	88230	38128	808
0	88257	38138	808
0	88284	38148	808
0	88311	38158	808
0	88338	38168	808
0	88365	38178	808
0	88392	38188	808
0	88419	38198	808
0	88446	38208	808
0	88473	38218	808
0	88500	38228	808
0	88527	38238	808
0	88554	38248	808
0	88581	38258	808
0	88608	38268	808
0	88635	38278	808
0	88662	38288	808
0	88689	38298	808
0	88716	38308	808
0	88743	38318	808
0	88770	38328	808
0	88797	38338	808
0	88824	38348	808
0	88852	38358	808
0	88879	38368	808
0	88908	38378	808
0	88936	38388	808
0	88964	38398	808
0	88992	38408	808
0	89020	38418	808
0	89048	38428	808
0	89076	38438	808
0	89107	38448	808
0	89136	38458	808
0	89167	38468	808
0	89196	38478	808
0	89225	38488	808
0	89254	38498	808
0	89283	38508	808
0	89312	38518	808
0	89341	38528	808
0	89370	38538	808
0	89399	38548	808
0	89428	38558	808
0	89457	38568	808
0	89486	38578	808
0	89515	38588	808
0	89546	38598	808
0	89575	38608	808
0	89604	38618	808
0	89634	38628	808
0	89663	38638	808
0	89693	38648	808
0	89722	38658	808
0	89751	38668	808
0	89780	38678	808
0	89809	38688	808
0	89840	38698	808
0	89870	38708	808
0	89900	38718	808
0	89930	38728	808
0	89960	38738	808
0	89990	38748	808
0	90020	38758	808
0	90050	38768	808
0	90080	38778	808
0	90110	38788	808
0	90140	38798	808
0	90170	38808	808
0	90200	38818	808
0	90232	38828	808
0	90262	38838	808
0	90292	38848	808
0	90322	38858	808
0	90352	38868	808
0	90382	38878	808
0	90412	38888	808
0	90442	38898	808
0	90472	38908	808
0	90502	38918	808
0	90532	38928	808
0	90562	38938	808
0	90593	38948	808
0	90622	38958	808
0	90653	38968	808
0	90682	38978	808
0	90708	38988	808
0	90734	38998	808
0	90760	39008	808
0	90786	39018	808
0	90812	39028	808
0	90838	39038	808
0	90864	39048	808
0	90890	39058	808
0	90916	39068	808
0	90942	39078	808
0	90968	39088	808
0	90994	39098	808
0	91020	39108	808
0	91046	39118	808
0	91072	39128	808
0	91098	39138	808
0	91124	39148	808
0	91152	39158	808
0	91178	39168	808
0	91204	39178	808
0	91230	39188	808
0	91256	39198	808
0	91282	39208	808
0	91308	39218	808
0	91334	39228	808
0	91360	39238	808
0	91386	39248	808
0	91412	39258	808
0	91438	39268	808
0	91464	39278	808
0	91490	39288	808
0	91516	39298	808
0	91542	39308	808
0	91568	39318	808
0	91594	39328	808
0	91620	39338	808
0	91647	39348	808
0	91674	39358	808
0	91700	39368	808
0	91726	39378	808
0	91752	39388	808
0	91778	39398	808
0	91805	39408	808
0	91831	39418	808
0	91857	39428	808
0	91883	39438	808
0	91909	39448	808
0	91935	39458	808
0	91961	39468	808
0	91987	39478	808
0	92013	39488	808
0	92039	39498	808
0	92065	39508	808
0	92091	39518	808
0	92117	39528	808
0	92143	39538	808
0	92169	39548	808
0	92195	39558	808
0	92221	39568	808
0	92247	39578	808
0	92273	39588	808
0	92299	39598	808
0	92325	39608	808
0	92351	39618	808
0	92377	39628	808
0	92403	39638	808
0	92429	39648	808
0	92455	39658	808
0	92481	39668	808
0	92507	39678	808
0	92533	39688	808
0	92559	39698	808
0	92584	39708	808
0	92609	39718	808
0	92634	39728	808
0	92659	39738	808
0	92684	39748	808
0	92711	39758	808
0	92737	39768	808
0	92763	39778	808
0	96622	41134	2154
0	96629	41134	2144
0	96635	41134	2134
0	96641	41134	2124
0	96647	41134	2114
0	96653	41134	2104
0	96659	41134	2094
0	96665	41134	2084
0	96671	41134	2074
0	96677	41134	2064
0	96683	41134	2054
0	96689	41134	2044
0	96695	41134	2034
0	96701	41134	2024
0	96707	41134	2014
0	96713	41134	2004
0	96719	41134	1994
0	96725	41134	1984
0	96731	41134	1974
0	96737	41134	1964
0	96743	41134	1954
0	96749	41134	1944
0	96755	41134	1934
0	96761	41134	1924
0	96767	41134	1914
0	96773	41134	1904
0	96779	41134	1894
0	96785	41134	1884
0	96791	41134	1874
0	96797	41134	1864
0	96803	41134	1854
0	96809	41134	1844
0	96815	41134	1834
0	96821	41134	1824
0	96827	41134	1814
0	96833	41134	1804
0	96839	41134	1794
0	96845	41134	1784
0	96851	41134	1774
0	96857	41134	1764
0	96863	41134	1754
0	96869	41134	1744
0	96875	41134	1734
0	96881	41134	1724
0	96887	41134	1714
0	96893	41134	1704
0	96899	41134	1694
0	96905	41134	1684
0	96911	41134	1674
0	96917	41134	1664
0	96923	41134	1654
0	96929	41134	1644
0	96935	41134	1634
0	96941	41134	1624
0	96947	41134	1614
0	96953	41134	1604
0	96959	41134	1594
0	96965	41134	1584
0	96971	41134	1574
0	96977	41134	1564
0	96983	41134	1554
0	96989	41134	1544
0	96995	41134	1534
0	97001	41134	1524
0	97007	41134	1514
0	97013	41134	1504
0	97019	41134	1494
0	97025	41134	1484
0	97031	41134	1474
0	97037	41134	1464
0	97043	41134	1454
0	97049	41134	1444
0	97055	41134	1434
0	97061	41134	1424
0	97067	41134	1414
0	97073	41134	1404
0	97079	41134	1394
0	97085	41134	1384
0	97091	41134	1374
0	97097	41134	1364
0	97103	41134	1354
0	97109	41134	1344
0	97115	41134	1334
0	97121	41134	1324
0	97127	41134	1314
0	97133	41134	1304
0	97139	41134	1294
0	97145	41134	1284
0	97151	41134	1274
0	97157	41134	1264
0	97163	41134	1254
0	97169	41134	1244
0	97175	41134	1234
0	97181	41134	1224
0	97187	41134	1214
0	97193	41134	1204
0	97199	41134	1194
0	97205	41134	1184
0	97211	41134	1174
0	97217	41134	1164
0	97223	41134	1154
0	97229	41134	1144
0	97235	41134	1134
0	97241	41134	1124
0	97247	41134	1114
0	97253	41134	1104
0	97259	41134	1094
0	97265	41134	1084
0	97271	41134	1074
0	97277	41134	1064
0	97283	41134	1054
0	97289	41134	1044
0	97295	41134	1034
0	97301	41134	1024
0	97307	41134	1014
0	97313	41134	1004
0	97319	41134	994
0	97325	41134	984
0	97331	41134	974
0	97337	41134	964
0	97343	41134	954
0	97349	41134	944
0	97355	41134	934
0	97361	41134	924
0	97367	41134	914
0	97373	41134	904
0	97379	41134	894
0	97385	41134	884
0	97391	41134	874
0	97397	41134	864
0	97403	41134	854
0	97409	41134	844
0	97415	41134	834
0	97421	41134	824
0	97441	41144	824
0	97462	41154	824
0	97485	41164	824
0	97506	41174	824
0	97527	41184	824
0	97548	41194	824
0	97569	41204	824
0	97590	41214	824
0	97611	41224	824
0	97632	41234	824
0	97653	41244	824
0	97674	41254	824
0	97695	41264	824
0	97716	41274	824
0	103680	44975	4515
0	103694	44975	4505
0	103708	44975	4495
0	103719	44975	4485
0	103733	44975	4475
0	103744	44975	4465
0	103758	44975	4455
0	103769	44975	4445
0	103783	44975	4435
0	103794	44975	4425
0	103808	44975	4415
0	103819	44975	4405
0	103833	44975	4395
0	103844	44975	4385
0	103858	44975	4375
0	103869	44975	4365
0	103883	44975	4355
0	103894	44975	4345
0	103908	44975	4335
0	103919	44975	4325
0	103933	44975	4315
0	103944	44975	4305
0	103958	44975	4295
0	103969	44975	4285
0	103983	44975	4275
0	103994	44975	4265
0	104008	44975	4255
0	104019	44975	4245
0	104033	44975	4235
0	104044	44975	4225
0	104058	44975	4215
0	104069	44975	4205
0	104083	44975	4195
0	104094	44975	4185
0	104108	44975	4175
0	104119	44975	4165
0	104133	44975	4155
0	104144	44975	4145
0	104158	44975	4135
0	104169	44975	4125
0	104183	44975	4115
0	104194	44975	4105
0	104208	44975	4095
0	104219	44975	4085
0	104233	44975	4075
0	104244	44975	4065
0	104258	44975	4055
0	104269	44975	4045
0	104283	44975	4035
0	104294	44975	4025
0	104308	44975	4015
0	104319	44975	4005
0	104333	44975	3995
0	104344	44975	3985
0	104358	44975	3975
0	104369	44975	3965
0	104383	44975	3955
0	104394	44975	3945
0	104408	44975	3935
0	104419	44975	3925
0	104433	44975	3915
0	104444	44975	3905
0	104458	44975	3895
0	104469	44975	3885
0	104483	44975	3875
0	104494	44975	3865
0	104508	44975	3855
0	104519	44975	3845
0	104533	44975	3835
0	104544	44975	3825
0	104558	44975	3815
0	104569	44975	3805
0	104583	44975	3795
0	104594	44975	3785
0	104608	44975	3775
0	104619	44975	3765
0	104633	44975	3755
0	104644	44975	3745
0	104658	44975	3735
0	104669	44975	3725
0	104683	44975	3715
0	104694	44975	3705
0	104708	44975	3695
0	104719	44975	3685
0	104733	44975	3675
0	104744	44975	3665
0	104758	44975	3655
0	104769	44975	3645
0	104783	44975	3635
0	104794	44975	3625
0	104808	44975	3615
0	104819	44975	3605
0	104833	44975	3595
0	104844	44975	3585
0	104858	44975	3575
0	104869	44975	3565
0	104883	44975	3555
0	104894	44975	3545
0	104908	44975	3535
0	104919	44975	3525
0	104933	44975	3515
0	104944	44975	3505
0	104958	44975	3495
0	104969	44975	3485
0	104983	44975	3475
0	104994	44975	3465
0	105008	44975	3455
0	105019	44975	3445
0	105033	44975	3435
0	105044	44975	3425
0	105058	44975	3415
0	105069	44975	3405
0	105083	44975	3395
0	105094	44975	3385
0	105108	44975	3375
0	105119	44975	3365
0	105133	44975	3355
0	105144	44975	3345
0	105158	44975	3335
0	105169	44975	3325
0	105183	44975	3315
0	105194	44975	3305
0	105208	44975	3295
0	105219	44975	3285
0	105233	44975	3275
0	105244	44975	3265
0	105258	44975	3255
0	105269	44975	3245
0	105283	44975	3235
0	105294	44975	3225
0	105308	44975	3215
0	105319	44975	3205
0	105333	44975	3195
0	105344	44975	3185
0	105358	44975	3175
0	105369	44975	3165
0	105383	44975	3155
0	105394	44975	3145
0	105408	44975	3135
0	105419	44975	3125
0	105433	44975	3115
0	105444	44975	3105
0	105458	44975	3095
0	105469	44975	3085
0	105483	44975	3075
0	105494	44975	3065
0	105508	44975	3055
0	105519	44975	3045
0	105533	44975	3035
0	105544	44975	3025
0	105558	44975	3015
0	105569	44975	3005
0	105583	44975	2995
0	105594	44975	2985
0	105608	44975	2975
0	105619	44975	2965
0	105633	44975	2955
0	105644	44975	2945
0	105658	44975	2935
0	105669	44975	2925
[...]
0	209597	76324	824
0	209626	76334	824
0	209655	76344	824
0	209684	76354	824
0	209713	76364	824
0	209742	76374	824
0	209771	76384	824
0	209800	76394	824
0	209829	76404	824
0	209860	76414	824
0	209889	76424	824
0	209918	76434	824
0	211257	77264	1644
0	211265	77264	1634
0	211271	77264	1624
0	211277	77264	1614
0	211283	77264	1604
0	211289	77264	1594
0	211295	77264	1584
0	211301	77264	1574
0	211307	77264	1564
0	211313	77264	1554
0	211319	77264	1544
0	211325	77264	1534
0	211331	77264	1524
0	211337	77264	1514
0	211343	77264	1504
0	211349	77264	1494
0	211355	77264	1484
0	211361	77264	1474
0	211367	77264	1464
0	211373	77264	1454
0	211379	77264	1444
0	211385	77264	1434
0	211391	77264	1424
0	211397	77264	1414
0	211403	77264	1404
0	211409	77264	1394
0	211415	77264	1384
0	211421	77264	1374
0	211427	77264	1364
0	211433	77264	1354
0	211439	77264	1344
0	211445	77264	1334
0	211451	77264	1324
0	211457	77264	1314
0	211463	77264	1304
0	211469	77264	1294
0	211475	77264	1284
0	211481	77264	1274
0	211487	77264	1264
0	211493	77264	1254
0	211499	77264	1244
0	211505	77264	1234
0	211511	77264	1224
0	211517	77264	1214
0	211523	77264	1204
0	211529	77264	1194
0	211535	77264	1184
0	211541	77264	1174
0	211547	77264	1164
0	211553	77264	1154
0	211559	77264	1144
0	211565	77264	1134
0	211571	77264	1124
0	211577	77264	1114
0	211583	77264	1104
0	211589	77264	1094
0	211595	77264	1084
0	211601	77264	1074
0	211607	77264	1064
0	211613	77264	1054
0	211619	77264	1044
0	211625	77264	1034
0	211631	77264	1024
0	211637	77264	1014
0	211643	77264	1004
0	211649	77264	994
0	211655	77264	984
0	211661	77264	974
0	211667	77264	964
0	211673	77264	954
0	211679	77264	944
0	211685	77264	934
0	211691	77264	924
0	211697	77264	914
0	211703	77264	904
0	211709	77264	894
0	211715	77264	884
0	211721	77264	874
0	211727	77264	864
0	211733	77264	854
0	211739	77264	844
0	211745	77264	834
0	211751	77264	824
0	211773	77274	824
0	211797	77284	824
0	211824	77294	824
0	211849	77304	824
0	211874	77314	824
0	211899	77324	824
0	211924	77334	824
0	211949	77344	824
0	211974	77354	824
0	211999	77364	824
0	212024	77374	824
0	212049	77384	824
0	212074	77394	824
0	212099	77404	824
0	212124	77414	824
0	212149	77424	824
0	212174	77434	824
0	212199	77444	824
0	220481	82708	3848
0	220487	82708	3838
0	220493	82708	3828
0	220499	82708	3818
0	220505	82708	3808
0	220511	82708	3798
0	220517	82708	3788
0	220523	82708	3778
0	220529	82708	3768
0	220535	82708	3758
0	220541	82708	3748
0	220547	82708	3738
0	220553	82708	3728
0	220559	82708	3718
0	220565	82708	3708
0	220571	82708	3698
0	220577	82708	3688
0	220583	82708	3678
0	220589	82708	3668
0	220595	82708	3658
0	220601	82708	3648
0	220607	82708	3638
0	220613	82708	3628
0	220619	82708	3618
0	220625	82708	3608
0	220631	82708	3598
0	220637	82708	3588
0	220643	82708	3578
0	220649	82708	3568
0	220655	82708	3558
0	220661	82708	3548
0	220667	82708	3538
0	220673	82708	3528
0	220679	82708	3518
0	220685	82708	3508
0	220691	82708	3498
0	220697	82708	3488
0	220703	82708	3478
0	220709	82708	3468
0	220715	82708	3458
0	220721	82708	3448
0	220727	82708	3438
0	220733	82708	3428
0	220739	82708	3418
0	220745	82708	3408
0	220751	82708	3398
0	220757	82708	3388
0	220763	82708	3378
0	220769	82708	3368
0	220775	82708	3358
0	220781	82708	3348
0	220787	82708	3338
0	220793	82708	3328
0	220799	82708	3318
0	220805	82708	3308
0	220811	82708	3298
0	220817	82708	3288
0	220823	82708	3278
0	220829	82708	3268
0	220835	82708	3258
0	220841	82708	3248
0	220847	82708	3238
0	220853	82708	3228
0	220859	82708	3218
0	220865	82708	3208
0	220871	82708	3198
0	220877	82708	3188
0	220883	82708	3178
0	220889	82708	3168
0	220895	82708	3158
0	220901	82708	3148
0	220907	82708	3138
0	220913	82708	3128
0	220919	82708	3118
0	220925	82708	3108
0	220931	82708	3098
0	220937	82708	3088
0	220943	82708	3078
0	220949	82708	3068
0	220955	82708	3058
0	220961	82708	3048
0	220967	82708	3038
0	220973	82708	3028
0	220979	82708	3018
0	220985	82708	3008
0	220991	82708	2998
0	220997	82708	2988
0	221003	82708	2978
0	221009	82708	2968
0	221015	82708	2958
0	221021	82708	2948
0	221027	82708	2938
0	221033	82708	2928
0	221039	82708	2918
0	221045	82708	2908
0	221051	82708	2898
0	221057	82708	2888
0	221063	82708	2878
0	221069	82708	2868
0	221075	82708	2858
0	221081	82708	2848
0	221087	82708	2838
0	221093	82708	2828
0	221099	82708	2818
0	221105	82708	2808
0	221111	82708	2798
0	221117	82708	2788
0	221123	82708	2778
0	221129	82708	2768
0	221135	82708	2758
0	221141	82708	2748
0	221147	82708	2738
0	221153	82708	2728
0	221159	82708	2718
0	221165	82708	2708
0	221171	82708	2698
0	221177	82708	2688
0	221183	82708	2678
0	222091	83468	3428
0	222097	83468	3418
0	222103	83468	3408
0	222109	83468	3398
0	222115	83468	3388
0	222121	83468	3378
0	222127	83468	3368
0	222133	83468	3358
0	222139	83468	3348
0	222145	83468	3338
0	222151	83468	3328
0	222157	83468	3318
0	222163	83468	3308
0	222169	83468	3298
0	222175	83468	3288
0	222181	83468	3278
0	222187	83468	3268
0	222193	83468	3258
0	222199	83468	3248
0	222205	83468	3238
0	222211	83468	3228
0	222217	83468	3218
0	222223	83468	3208
0	222229	83468	3198
0	222235	83468	3188
0	222241	83468	3178
0	222247	83468	3168
0	222253	83468	3158
0	222259	83468	3148
0	222265	83468	3138
0	222271	83468	3128
0	222277	83468	3118
0	222283	83468	3108
0	222289	83468	3098
0	222295	83468	3088
0	222301	83468	3078
0	222307	83468	3068
0	222313	83468	3058
0	222319	83468	3048
0	222325	83468	3038
0	222331	83468	3028
0	222337	83468	3018
0	222343	83468	3008
0	222349	83468	2998
0	222355	83468	2988
0	222361	83468	2978
0	222367	83468	2968
0	222373	83468	2958
0	222379	83468	2948
0	222385	83468	2938
0	222391	83468	2928
0	222397	83468	2918
0	222403	83468	2908
0	222409	83468	2898
0	222415	83468	2888
0	222421	83468	2878
0	222427	83468	2868
0	222433	83468	2858
0	222439	83468	2848
0	222445	83468	2838
0	222451	83468	2828
0	222457	83468	2818
0	222463	83468	2808
0	222469	83468	2798
0	222475	83468	2788
0	222481	83468	2778
0	222487	83468	2768
0	222493	83468	2758
0	222499	83468	2748
0	222505	83468	2738
0	222511	83468	2728
0	222517	83468	2718
0	222523	83468	2708
0	222529	83468	2698
0	222535	83468	2688
0	222541	83468	2678
0	222547	83468	2668
0	222553	83468	2658
0	222559	83468	2648
0	222565	83468	2638
0	228507	85836	9206
0	228517	85836	9196
0	228523	85836	9186
0	228529	85836	9176
0	228535	85836	9166
0	228541	85836	9156
0	228547	85836	9146
0	228553	85836	9136
0	228559	85836	9126
0	228565	85836	9116
0	228571	85836	9106
0	228577	85836	9096
0	228583	85836	9086
0	228589	85836	9076
0	228595	85836	9066
0	228601	85836	9056
0	228607	85836	9046
0	228613	85836	9036
0	228619	85836	9026
0	228625	85836	9016
0	228631	85836	9006
0	228637	85836	8996
0	228643	85836	8986
0	228649	85836	8976
0	228655	85836	8966
0	228661	85836	8956
0	228667	85836	8946
0	228673	85836	8936
0	228679	85836	8926
0	228685	85836	8916
0	228691	85836	8906
0	228697	85836	8896
0	228703	85836	8886
0	228709	85836	8876
0	228715	85836	8866
0	228721	85836	8856
0	228727	85836	8846
0	228733	85836	8836
0	228739	85836	8826
0	228745	85836	8816
0	228751	85836	8806
0	228757	85836	8796
0	228763	85836	8786
0	228769	85836	8776
0	228775	85836	8766
0	228781	85836	8756
0	228787	85836	8746
0	228793	85836	8736
0	228799	85836	8726
0	228805	85836	8716
0	228811	85836	8706
0	228817	85836	8696
0	228823	85836	8686
0	228829	85836	8676
0	228835	85836	8666
0	228841	85836	8656
0	228847	85836	8646
0	228853	85836	8636
0	228859	85836	8626
0	228865	85836	8616
0	228871	85836	8606
0	228877	85836	8596
0	228883	85836	8586
0	228889	85836	8576
0	228895	85836	8566
0	228901	85836	8556
0	228907	85836	8546
0	228913	85836	8536
0	228919	85836	8526
0	228925	85836	8516
0	228931	85836	8506
0	228937	85836	8496
0	228943	85836	8486
0	228949	85836	8476
0	228955	85836	8466
0	228961	85836	8456
0	228967	85836	8446
0	228973	85836	8436
0	228979	85836	8426
0	228985	85836	8416
0	228991	85836	8406
0	228997	85836	8396
0	229003	85836	8386
0	229009	85836	8376
0	229015	85836	8366
0	229021	85836	8356
0	229027	85836	8346
0	229033	85836	8336
0	229039	85836	8326
0	229045	85836	8316
0	229051	85836	8306
0	229057	85836	8296
0	229063	85836	8286
0	229069	85836	8276
0	229075	85836	8266
0	229081	85836	8256
0	229087	85836	8246
0	229093	85836	8236
0	229099	85836	8226
0	229105	85836	8216
0	229111	85836	8206
0	229117	85836	8196
0	229123	85836	8186
0	229129	85836	8176
0	229135	85836	8166
0	229141	85836	8156
0	229147	85836	8146
0	229153	85836	8136
0	229159	85836	8126
0	229165	85836	8116
0	229171	85836	8106
0	229177	85836	8096
0	229183	85836	8086
0	229189	85836	8076
0	229195	85836	8066
0	229201	85836	8056
0	229207	85836	8046
0	229213	85836	8036
0	229219	85836	8026
0	229225	85836	8016
0	229231	85836	8006
0	229237	85836	7996
0	229243	85836	7986
0	229249	85836	7976
0	229255	85836	7966
0	229261	85836	7956
0	229267	85836	7946
0	229273	85836	7936
0	229279	85836	7926
0	229285	85836	7916
0	229291	85836	7906
0	229297	85836	7896
0	229303	85836	7886
0	229309	85836	7876
0	229315	85836	7866
0	229321	85836	7856
0	229327	85836	7846
0	229333	85836	7836
0	229339	85836	7826
0	229345	85836	7816
0	229351	85836	7806
0	229357	85836	7796
0	229363	85836	7786
0	229369	85836	7776
0	229375	85836	7766
0	229381	85836	7756
0	229387	85836	7746
0	229393	85836	7736
0	229399	85836	7726
0	229405	85836	7716
0	229411	85836	7706
0	229417	85836	7696
0	229423	85836	7686
0	229429	85836	7676
0	229435	85836	7666
0	229441	85836	7656
0	229447	85836	7646
0	229453	85836	7636
0	229459	85836	7626
0	229465	85836	7616
0	229471	85836	7606
0	229477	85836	7596
0	229483	85836	7586
0	229489	85836	7576
0	229495	85836	7566
0	229501	85836	7556
0	229507	85836	7546
0	229513	85836	7536
0	229519	85836	7526
0	229525	85836	7516
0	229531	85836	7506
0	229537	85836	7496
0	229543	85836	7486
0	229549	85836	7476
0	229555	85836	7466
0	229561	85836	7456
0	229567	85836	7446
0	229573	85836	7436
0	229579	85836	7426
0	229585	85836	7416
0	229591	85836	7406
0	229597	85836	7396
0	229603	85836	7386
0	229609	85836	7376
0	229615	85836	7366
0	229621	85836	7356
0	229627	85836	7346
0	229633	85836	7336
0	229639	85836	7326
0	229645	85836	7316
0	229651	85836	7306
0	229657	85836	7296
0	229663	85836	7286
0	229669	85836	7276
0	229675	85836	7266
0	229681	85836	7256
0	229687	85836	7246
0	229693	85836	7236
0	229699	85836	7226
0	229705	85836	7216
0	229711	85836	7206
0	229717	85836	7196
0	229723	85836	7186
0	229729	85836	7176
0	229735	85836	7166
0	229741	85836	7156
0	229747	85836	7146
0	229753	85836	7136
0	229759	85836	7126
0	229765	85836	7116
0	229771	85836	7106
0	229777	85836	7096
0	229783	85836	7086
0	229789	85836	7076
0	229795	85836	7066
0	229801	85836	7056
0	229807	85836	7046
0	229813	85836	7036
0	229819	85836	7026
0	229825	85836	7016
0	229831	85836	7006
0	229837	85836	6996
0	229843	85836	6986
0	229849	85836	4996
0	229855	85836	4986
0	229861	85836	4976
0	229867	85836	4966
0	229873	85836	4956
0	229879	85836	4946
0	229885	85836	4936
0	229891	85836	4926
0	229897	85836	4916
0	229903	85836	4906
0	229909	85836	4896
0	229915	85836	4886
0	229921	85836	4876
0	229927	85836	4866
0	229933	85836	4856
0	229939	85836	4846
0	229945	85836	4836
0	229951	85836	4826
0	229957	85836	4816
0	229963	85836	4806
0	229969	85836	4796
0	229975	85836	4786
0	229981	85836	4776
0	229987	85836	4766
0	229993	85836	4756
0	229999	85836	4746
0	230005	85836	4736
0	230011	85836	4726
0	230017	85836	4716
0	230023	85836	4706
0	230029	85836	4696
0	230035	85836	4686
0	230041	85836	4676
0	230047	85836	4666
0	230053	85836	4656
0	230059	85836	4646
0	230065	85836	4636
0	230071	85836	4626
0	230077	85836	4616
0	230083	85836	4606
0	230089	85836	4596
0	230095	85836	4586
0	230101	85836	4576
0	230107	85836	4566
0	230113	85836	4556
0	230119	85836	4546
0	230125	85836	4536
0	230131	85836	4526
0	230137	85836	4516
0	230143	85836	4506
0	230149	85836	4496
0	230155	85836	4486
0	230161	85836	4476
0	230167	85836	4466
0	230173	85836	4456
0	230179	85836	4446
0	230185	85836	4436
0	230191	85836	4426
0	230197	85836	4416
0	230203	85836	4406
0	230209	85836	4396
0	230215	85836	4386
0	230221	85836	4376
0	230227	85836	4366
0	230233	85836	4356
0	230239	85836	4346
0	230245	85836	4336
0	230251	85836	4326
0	230257	85836	4316
0	230263	85836	4306
0	230269	85836	4296
0	230275	85836	4286
0	230281	85836	4276
0	230287	85836	4266
0	230293	85836	4256
0	230299	85836	4246
0	230305	85836	4236
0	230311	85836	4226
0	230317	85836	4216
0	230323	85836	4206
0	230329	85836	4196
0	230335	85836	4186
0	230341	85836	4176
0	230347	85836	4166
0	230353	85836	4156
0	230359	85836	4146
0	230365	85836	4136
0	230371	85836	4126
0	230377	85836	4116
0	230383	85836	4106
0	230389	85836	4096
0	230395	85836	4086
0	230401	85836	4076
0	230407	85836	4066
0	230413	85836	4056
0	230419	85836	4046
0	230425	85836	4036
0	230431	85836	4026
0	230437	85836	4016
0	230443	85836	4006
0	230449	85836	3996
0	230455	85836	3986
0	230461	85836	3976
0	230467	85836	3966
0	230473	85836	3956
0	230479	85836	3946
0	230485	85836	3936
0	230491	85836	3926
0	230497	85836	3916
0	230503	85836	3906
0	230509	85836	3896
0	230515	85836	3886
0	230521	85836	3876
0	230527	85836	3866
0	230533	85836	3856
0	230539	85836	3846
0	230545	85836	3836
0	230551	85836	3826
0	230557	85836	3816
0	230563	85836	3806
0	230569	85836	3796
0	230575	85836	3786
0	230581	85836	3776
0	230587	85836	3766
0	230593	85836	3756
0	230599	85836	3746
0	230605	85836	3736
0	230611	85836	3726
0	230617	85836	3716
0	230623	85836	3706
0	230629	85836	3696
0	230635	85836	3686
0	230641	85836	3676
0	230647	85836	3666
0	230653	85836	3656
0	230659	85836	3646
0	230665	85836	3636
0	230671	85836	3626
0	230677	85836	3616
0	230683	85836	3606
0	230689	85836	3596
0	230695	85836	3586
0	230701	85836	3576
0	230707	85836	3566
0	230713	85836	3556
0	230719	85836	3546
0	230725	85836	3536
0	230731	85836	3526
0	230737	85836	3516
0	230743	85836	3506
0	230749	85836	3496
0	230755	85836	3486
0	230761	85836	3476
0	230767	85836	3466
0	230773	85836	3456
0	230779	85836	3446
0	230785	85836	3436
0	230791	85836	3426
0	230797	85836	3416
0	230803	85836	3406
0	230809	85836	3396
0	230815	85836	3386
0	230821	85836	3376
0	230827	85836	3366
0	230833	85836	3356
0	230839	85836	3346
0	230845	85836	3336
0	230851	85836	3326
0	230857	85836	3316
0	230863	85836	3306
0	230869	85836	3296
0	230875	85836	3286
0	230881	85836	3276
0	230887	85836	3266
0	230893	85836	3256
0	230899	85836	3246
0	230905	85836	3236
0	230911	85836	3226
0	230917	85836	3216
0	230923	85836	3206
0	230929	85836	3196
0	230935	85836	3186
0	230941	85836	3176
0	230947	85836	3166
0	230953	85836	3156
0	230959	85836	3146
0	230965	85836	3136
0	230971	85836	3126
0	230977	85836	3116
0	230983	85836	3106
0	230989	85836	3096
0	230995	85836	3086
0	231001	85836	3076
0	231007	85836	3066
0	231013	85836	3056
0	231019	85836	3046
0	231025	85836	3036
0	231031	85836	3026
0	231037	85836	3016
0	231043	85836	3006
0	231049	85836	2996
0	231055	85836	2986
0	231061	85836	2976
0	231067	85836	2966
0	231073	85836	2956
0	231079	85836	2946
0	231085	85836	2936
0	231091	85836	2926
0	231097	85836	2916
0	231103	85836	2906
0	231109	85836	2896
0	231115	85836	2886
0	231121	85836	2876
0	231127	85836	2866
0	231133	85836	2856
0	231139	85836	2846
0	231145	85836	2836
0	231151	85836	2826
0	231157	85836	2816
0	231163	85836	2806
0	231169	85836	2796
0	231175	85836	2786
0	231181	85836	2776
0	231187	85836	2766
0	231193	85836	2756
0	231199	85836	2746
0	231205	85836	2736
0	231211	85836	2726
0	231217	85836	2716
0	231223	85836	2706
0	231229	85836	2696
0	231235	85836	2686
0	231241	85836	2676
0	231247	85836	2666
0	231253	85836	2656
0	231259	85836	2646
0	231265	85836	2636
0	231271	85836	2626
0	231277	85836	2616
0	231283	85836	2606
0	231289	85836	2596
0	231295	85836	2586
0	231301	85836	2576
0	231307	85836	2566
0	231313	85836	2556
0	231319	85836	2546
0	231325	85836	2536
0	231331	85836	2526
0	231337	85836	2516
0	231343	85836	2506
0	231349	85836	2496
0	231355	85836	2486
0	231361	85836	2476
0	231367	85836	2466
0	231373	85836	2456
0	231379	85836	2446
0	231385	85836	2436
0	231391	85836	2426
0	231397	85836	2416
0	231403	85836	2406
0	231409	85836	2396
0	231415	85836	2386
0	231421	85836	2376
0	231427	85836	2366
0	231433	85836	2356
0	231439	85836	2346
0	231445	85836	2336
0	231451	85836	2326
0	231457	85836	2316
0	231463	85836	2306
0	231469	85836	2296
0	231475	85836	2286
0	231481	85836	2276
0	231487	85836	2266
0	231493	85836	2256
0	231499	85836	2246
0	231505	85836	2236
0	231511	85836	2226
0	231517	85836	2216
0	231523	85836	2206
0	231529	85836	2196
0	231535	85836	2186
0	231541	85836	2176
0	231547	85836	2166
0	231553	85836	2156
0	231559	85836	2146
0	231565	85836	2136
0	231571	85836	2126
0	231577	85836	2116
0	231583	85836	2106
0	231589	85836	2096
0	231595	85836	2086
0	231601	85836	2076
0	231607	85836	2066
0	231613	85836	2056
0	231619	85836	2046
0	231625	85836	2036
0	231631	85836	2026
0	231637	85836	2016
0	231643	85836	2006
0	231649	85836	1996
0	231655	85836	1986
0	231661	85836	1976
0	231667	85836	1966
0	231673	85836	1956
0	231679	85836	1946
0	231685	85836	1936
0	231691	85836	1926
0	231697	85836	1916
0	231703	85836	1906
0	231709	85836	1896
0	231715	85836	1886
0	231721	85836	1876
0	231727	85836	1866
0	231733	85836	1856
0	231739	85836	1846
0	231745	85836	1836
0	231751	85836	1826
0	231757	85836	1816
0	231763	85836	1806
0	231769	85836	1796
0	231775	85836	1786
0	231781	85836	1776
0	231787	85836	1766
0	231793	85836	1756
0	231799	85836	1746
0	231805	85836	1736
0	231811	85836	1726
0	231817	85836	1716
0	231823	85836	1706
0	231829	85836	1696
0	231835	85836	1686
0	231841	85836	1676
0	231847	85836	1666
0	231853	85836	1656
0	231859	85836	1646
0	231865	85836	1636
0	231871	85836	1626
0	231877	85836	1616
0	231883	85836	1606
0	231889	85836	1596
0	231895	85836	1586
0	231901	85836	1576
0	231907	85836	1566
0	231913	85836	1556
0	231919	85836	1546
0	231925	85836	1536
0	231931	85836	1526
0	231937	85836	1516
0	231943	85836	1506
0	231949	85836	1496
0	231955	85836	1486
0	231961	85836	1476
0	231967	85836	1466
0	231973	85836	1456
0	231979	85836	1446
0	231985	85836	1436
0	231991	85836	1426
0	231997	85836	1416
0	232003	85836	1406
0	232009	85836	1396
0	232015	85836	1386
0	232021	85836	1376
0	232027	85836	1366
0	232033	85836	1356
0	232039	85836	1346
0	232045	85836	1336
0	232051	85836	1326
0	232057	85836	1316
0	232063	85836	1306
0	232069	85836	1296
0	232075	85836	1286
0	232081	85836	1276
0	232087	85836	1266
0	232093	85836	1256
0	232099	85836	1246
0	232105	85836	1236
0	232111	85836	1226
0	232117	85836	1216
0	232123	85836	1206
0	232129	85836	1196
0	232135	85836	1186
0	232141	85836	1176
0	232147	85836	1166
0	232153	85836	1156
0	232159	85836	1146
0	232165	85836	1136
0	232171	85836	1126
0	232177	85836	1116
0	232183	85836	1106
0	232189	85836	1096
0	232195	85836	1086
0	232201	85836	1076
0	232207	85836	1066
0	232213	85836	1056
0	232219	85836	1046
0	232225	85836	1036
0	232231	85836	1026
0	232237	85836	1016
0	232243	85836	1006
0	232249	85836	996
0	232255	85836	986
0	232261	85836	976
0	232267	85836	966
0	232273	85836	956
0	232279	85836	946
0	232285	85836	936
0	232291	85836	926
0	232297	85836	916
0	232303	85836	906
0	232309	85836	896
0	232315	85836	886
0	232321	85836	876
0	232327	85836	866
0	232333	85836	856
0	232355	85844	854
0	232381	85854	854
0	232407	85864	854
0	232433	85874	854
0	232459	85884	854
0	232485	85894	854
0	232511	85904	854
0	232537	85914	854
0	232563	85924	854
0	232589	85934	854
0	232615	85944	854
0	232641	85954	854
0	232667	85964	854
0	232693	85974	854
0	232719	85984	854
0	232745	85994	854
0	232771	86004	854
0	232797	86014	854
0	232823	86024	854
0	232849	86034	854
0	232875	86044	854
0	232901	86054	854
0	232927	86064	854
0	232953	86074	854
0	232979	86084	854
0	233005	86094	854
0	233031	86104	854
0	233057	86114	854
0	233083	86124	854
0	233111	86134	854
0	233137	86144	854
0	233163	86154	854
0	233189	86164	854
0	233215	86174	854
0	233241	86184	854
0	233267	86194	854
0	233293	86204	854
0	233319	86214	854
0	233345	86224	854
0	233371	86234	854
0	233397	86244	854
0	233423	86254	854
0	233449	86264	854
0	233475	86274	854
0	233501	86284	854
0	233527	86294	854
0	233553	86304	854
0	233579	86314	854
0	233605	86324	854
0	233631	86334	854
0	233657	86344	854
0	233683	86354	854
0	233709	86364	854
0	233736	86374	854
0	233762	86384	854
0	233788	86394	854


