version 2
run General-0-20250118-14:28:22-223737
attr configname General
attr datetime 20250118-14:28:22
attr experiment General
attr inifile shaw_exist.ini
attr iterationvars ""
attr iterationvarsf ""
attr measurement ""
attr network src.dtnsim
attr processid 223737
attr repetition 0
attr replication #0
attr resultdir results
attr runnumber 0
attr seedset 0
param dtnsim.central.contactsFile "\"contactPlan/Contacts.txt\""
param dtnsim.central.contactsFile_A "\"contactPlan/Contacts_A.txt\""
param dtnsim.central.contactsFile_B "\"contactPlan/Contacts_B.txt\""
param dtnsim.central.contactIdsToDelete_from_celestialA "\"21 32 37 46 52 55 68 69 89 90 91 98 100 109 113 127 167 169 185 188 190 216 220 221 222 229 237 238 239 244 249 263 271 299 303 337 340 346 353 360 361 362 365 371 375 393 408 413 425 442\""
param dtnsim.central.contactIdsToDelete_from_celestialB "\"8 12 30 48 64 66 70 111 120 123 124 129 141 143 158 163 174 178 189 204 231 236 251 268 270 293 308 310 313 319 334 342 356 364 367 376 377 399 404 406 409 414 427 439 445 460 469 472 474 476\""
param dtnsim.central.celestialA_nodes "\"1 2 3\""
param dtnsim.central.celestialB_nodes "\"4 5 6\""
param dtnsim.central.locallyfaultsAware true
param dtnsim.central.mode_two_celestial true
param dtnsim.nodesNumber 6
param dtnsim.node[1].icon "\"receiverdish\""
param dtnsim.node[2..5].icon "\"satellite\""
param dtnsim.node[6].icon "\"receiverdish\""
param dtnsim.node[*].dtn.routing "\"cgrModel350\""
param dtnsim.node[*].dtn.routingType "\"routeListType:allPaths-firstEnding,volumeAware:allContacts,extensionBlock:on,contactPlan:global\""
param dtnsim.node[1].app.enable true
param dtnsim.node[1].app.bundlesNumber "\"8000\""
param dtnsim.node[1].app.start "\"0\""
param dtnsim.node[1].app.destinationEid "\"6\""
param dtnsim.node[1].app.size "\"1500\""
param dtnsim.node[1].app.interval 10

vector 0 dtnsim.node[6].app appBundleReceivedDelayvec:vector ETV
attr interpolationmode none
attr source appBundleReceivedDelay
attr title "appBundleReceivedDelayvec, vector"
0	49536	46278	46278
0	49542	46278	46268
0	49548	46278	46258
0	49554	46278	46248
0	49560	46278	46238
0	49566	46278	46228
0	49572	46278	46218
0	49578	46278	46208
0	49584	46278	46198
0	49590	46278	46188
0	49596	46278	46178
0	49602	46278	46168
0	49608	46278	46158
0	49614	46278	46148
0	49620	46278	46138
0	49626	46278	46128
0	49632	46278	46118
0	49638	46278	46108
0	49644	46278	46098
0	49650	46278	46088
0	49656	46278	46078
0	49662	46278	46068
0	49668	46278	46058
0	49674	46278	46048
0	49680	46278	46038
0	49686	46278	46028
0	49692	46278	46018
0	49698	46278	46008
0	49704	46278	45998
0	49710	46278	45988
0	49716	46278	45978
0	49722	46278	45968
0	49728	46278	45958
0	49734	46278	45948
0	49740	46278	45938
0	49746	46278	45928
0	49752	46278	45918
0	49758	46278	45908
0	49764	46278	45898
0	49770	46278	45888
0	49776	46278	45878
0	49782	46278	45868
0	49788	46278	45858
0	49794	46278	45848
0	49800	46278	45838
0	49806	46278	45828
0	49812	46278	45818
0	49818	46278	45808
0	49824	46278	45798
0	49830	46278	45788
0	49836	46278	45778
0	49842	46278	45768
0	49848	46278	45758
0	49854	46278	45748
0	49860	46278	45738
0	49866	46278	45728
0	49872	46278	45718
0	49878	46278	45708
0	49884	46278	45698
0	49890	46278	45688
0	49896	46278	45678
0	49902	46278	45668
0	49908	46278	45658
0	49914	46278	45648
0	49920	46278	45638
0	49926	46278	45628
0	49932	46278	45618
0	49938	46278	45608
0	49944	46278	45598
0	49950	46278	45588
0	49956	46278	45578
0	49962	46278	45568
0	49968	46278	45558
0	49974	46278	45548
0	49980	46278	45538
0	49986	46278	45528
0	49992	46278	45518
0	49998	46278	45508
0	50004	46278	45498
0	50010	46278	45488
0	50016	46278	45478
0	50022	46278	45468
0	50028	46278	45458
0	50034	46278	45448
0	50040	46278	45438
0	50046	46278	45428
0	50052	46278	45418
0	50058	46278	45408
0	50064	46278	45398
0	50070	46278	45388
0	50076	46278	45378
0	50082	46278	45368
0	50088	46278	45358
0	50094	46278	45348
0	50100	46278	45338
0	50106	46278	45328
0	50112	46278	45318
0	50118	46278	45308
0	50124	46278	45298
0	50130	46278	45288
0	50136	46278	45278
0	50142	46278	45268
0	50148	46278	45258
0	50154	46278	45248
0	50160	46278	45238
0	50166	46278	45228
0	50172	46278	45218
0	50178	46278	45208
0	50184	46278	45198
0	50190	46278	45188
0	50196	46278	45178
0	50202	46278	45168
0	50208	46278	45158
0	50214	46278	45148
0	50220	46278	45138
0	50226	46278	45128
0	50232	46278	45118
0	50238	46278	45108
0	50244	46278	45098
0	50250	46278	45088
0	50256	46278	45078
0	50262	46278	45068
0	50268	46278	45058
0	50274	46278	45048
0	50280	46278	45038
0	50286	46278	45028
0	50292	46278	45018
0	50298	46278	45008
0	50304	46278	44998
0	50310	46278	44988
0	50316	46278	44978
0	50322	46278	44968
0	50328	46278	44958
0	50334	46278	44948
0	50340	46278	44938
0	50346	46278	44928
0	50352	46278	44918
0	50358	46278	44908
0	50364	46278	44898
0	50370	46278	44888
0	50376	46278	44878
0	50382	46278	44868
0	50388	46278	44858
0	50394	46278	44848
0	50400	46278	44838
0	50406	46278	44828
0	50412	46278	44818
0	50418	46278	44808
0	50424	46278	44798
0	50430	46278	44788
0	50436	46278	44778
0	50442	46278	44768
0	50448	46278	44758
0	50454	46278	44748
0	50460	46278	44738
0	50466	46278	44728
0	50472	46278	44718
0	50478	46278	44708
0	50484	46278	44698
0	50490	46278	44688
0	50496	46278	44678
0	50502	46278	44668
0	50508	46278	44658
0	50514	46278	44648
0	50520	46278	44638
0	50526	46278	44628
0	50532	46278	44618
0	50538	46278	44608
0	50544	46278	44598
0	50550	46278	44588
0	50556	46278	44578
0	50562	46278	44568
0	50568	46278	44558
0	50574	46278	44548
0	50580	46278	44538
0	50586	46278	44528
0	50592	46278	44518
0	50598	46278	44508
0	50604	46278	44498
0	50610	46278	44488
0	50616	46278	44478
0	50622	46278	44468
0	50628	46278	44458
0	50634	46278	44448
0	50640	46278	44438
0	50646	46278	44428
0	50652	46278	44418
0	50658	46278	44408
0	50664	46278	44398
0	50670	46278	44388
0	50676	46278	44378
0	50682	46278	44368
0	50688	46278	44358
0	50694	46278	44348
0	50700	46278	44338
0	50706	46278	44328
0	50712	46278	44318
0	50718	46278	44308
0	50724	46278	44298
0	50730	46278	44288
0	50736	46278	44278
0	50742	46278	44268
0	50748	46278	44258
0	50754	46278	44248
0	50760	46278	44238
0	50766	46278	44228
0	50772	46278	44218
0	50778	46278	44208
0	50784	46278	44198
0	50790	46278	44188
0	50796	46278	44178
0	50802	46278	44168
0	50808	46278	44158
0	50814	46278	44148
0	50820	46278	44138
0	50826	46278	44128
0	50832	46278	44118
0	50838	46278	44108
0	50844	46278	44098
0	50850	46278	44088
0	50856	46278	44078
0	50862	46278	44068
0	50868	46278	44058
0	50874	46278	44048
0	50880	46278	44038
0	50886	46278	44028
0	50892	46278	44018
0	50898	46278	44008
0	50904	46278	43998
0	50910	46278	43988
0	50916	46278	43978
0	50922	46278	43968
0	50928	46278	43958
0	50934	46278	43948
0	50940	46278	43938
0	50946	46278	43928
0	50952	46278	43918
0	50958	46278	43908
0	50964	46278	43898
0	50970	46278	43888
0	50976	46278	43878
0	50982	46278	43868
0	50988	46278	43858
0	50994	46278	43848
0	51000	46278	43838
0	51006	46278	43828
0	51012	46278	43818
0	51018	46278	43808
0	51024	46278	43798
0	51030	46278	43788
0	51036	46278	43778
0	51042	46278	43768
0	51048	46278	43758
0	51054	46278	43748
0	51060	46278	43738
0	51066	46278	43728
0	51072	46278	43718
0	51078	46278	43708
0	51084	46278	43698
0	51090	46278	43688
0	51096	46278	43678
0	51102	46278	43668
0	51108	46278	43658
0	51114	46278	43648
0	51120	46278	43638
0	51126	46278	43628
0	51132	46278	43618
0	51138	46278	43608
0	51144	46278	43598
0	51150	46278	43588
0	51156	46278	43578
0	51162	46278	43568
0	51168	46278	43558
0	51174	46278	43548
0	51180	46278	43538
0	51186	46278	43528
0	51192	46278	43518
0	51198	46278	43508
0	51204	46278	43498
0	51210	46278	43488
0	51216	46278	43478
0	51222	46278	43468
0	51228	46278	43458
0	51234	46278	43448
0	51240	46278	43438
0	51246	46278	43428
0	51252	46278	43418
0	51258	46278	43408
0	51264	46278	43398
0	51270	46278	43388
0	51276	46278	43378
0	51282	46278	43368
0	51288	46278	43358
0	51294	46278	43348
0	51300	46278	43338
0	51306	46278	43328
0	51312	46278	43318
0	51318	46278	43308
0	51324	46278	43298
0	51330	46278	43288
0	51336	46278	43278
0	51342	46278	43268
0	51348	46278	43258
0	51354	46278	43248
0	51360	46278	43238
0	51366	46278	43228
0	51372	46278	43218
0	51378	46278	43208
0	51384	46278	43198
0	51390	46278	43188
0	51396	46278	43178
0	51402	46278	43168
0	51408	46278	43158
0	51414	46278	43148
0	51420	46278	43138
0	51426	46278	43128
0	51432	46278	43118
0	51438	46278	43108
0	51444	46278	43098
0	51450	46278	43088
0	51456	46278	43078
0	51462	46278	43068
0	51468	46278	43058
0	51474	46278	43048
0	51480	46278	43038
0	51486	46278	43028
0	51492	46278	43018
0	51498	46278	43008
0	51504	46278	42998
0	51510	46278	42988
0	51516	46278	42978
0	51522	46278	42968
0	51528	46278	42958
0	51534	46278	42948
0	51540	46278	42938
0	51546	46278	42928
0	51552	46278	42918
0	51558	46278	42908
0	51564	46278	42898
0	51570	46278	42888
0	51576	46278	42878
0	51582	46278	42868
0	51588	46278	42858
0	51594	46278	42848
0	51600	46278	42838
0	51606	46278	42828
0	51612	46278	42818
0	51618	46278	42808
0	51624	46278	42798
0	51630	46278	42788
0	51636	46278	42778
0	51642	46278	42768
0	51648	46278	42758
0	51654	46278	42748
0	51660	46278	42738
0	51666	46278	42728
0	51672	46278	42718
0	51678	46278	42708
0	51684	46278	42698
0	51690	46278	42688
0	51696	46278	42678
0	51702	46278	42668
0	51708	46278	42658
0	51714	46278	42648
0	51720	46278	42638
0	51726	46278	42628
0	51732	46278	42618
0	51738	46278	42608
0	51744	46278	42598
0	51750	46278	42588
0	51756	46278	42578
0	51762	46278	42568
0	51768	46278	42558
0	51774	46278	42548
0	51780	46278	42538
0	51786	46278	42528
0	51792	46278	42518
0	51798	46278	42508
0	51804	46278	42498
0	51810	46278	42488
0	51816	46278	42478
0	51822	46278	42468
0	51828	46278	42458
0	51834	46278	42448
0	51840	46278	42438
0	51846	46278	42428
0	51852	46278	42418
0	51858	46278	42408
0	51864	46278	42398
0	51870	46278	42388
0	51876	46278	42378
0	51882	46278	42368
0	51888	46278	42358
0	51894	46278	42348
0	51900	46278	42338
0	51906	46278	42328
0	51912	46278	42318
0	51918	46278	42308
0	51924	46278	42298
0	51930	46278	42288
0	51936	46278	42278
0	51942	46278	42268
0	51948	46278	42258
0	51954	46278	42248
0	51960	46278	42238
0	51966	46278	42228
0	51972	46278	42218
0	51978	46278	42208
0	51984	46278	42198
0	51990	46278	42188
0	51996	46278	42178
0	52002	46278	42168
0	52008	46278	42158
0	52014	46278	42148
0	52020	46278	42138
0	52026	46278	42128
0	52032	46278	42118
0	52038	46278	42108
0	52044	46278	42098
0	52050	46278	42088
0	52056	46278	42078
0	52062	46278	42068
0	52068	46278	42058
0	52074	46278	42048
0	52080	46278	42038
0	52086	46278	42028
0	52092	46278	42018
0	52098	46278	42008
0	52104	46278	41998
0	52110	46278	41988
0	52116	46278	41978
0	52122	46278	41968
0	52128	46278	41958
0	52134	46278	41948
0	52140	46278	41938
0	52146	46278	41928
0	52152	46278	41918
0	52158	46278	41908
0	52164	46278	41898
0	52170	46278	41888
0	52176	46278	41878
0	52182	46278	41868
0	52188	46278	41858
0	52194	46278	41848
0	52200	46278	41838
0	52206	46278	41828
0	52212	46278	41818
0	52218	46278	41808
0	52224	46278	41798
0	52230	46278	41788
0	52236	46278	41778
0	52242	46278	41768
0	52248	46278	41758
0	52254	46278	41748
0	52260	46278	41738
0	52266	46278	41728
0	52272	46278	41718
0	52278	46278	41708
0	52284	46278	41698
0	52290	46278	41688
0	52296	46278	41678
0	52302	46278	41668
0	52308	46278	41658
0	52314	46278	41648
0	52320	46278	41638
0	52326	46278	41628
0	52332	46278	41618
0	52338	46278	41608
0	52344	46278	41598
0	52350	46278	41588
0	52356	46278	41578
0	52362	46278	41568
0	52368	46278	41558
0	52374	46278	41548
0	52380	46278	41538
0	52386	46278	41528
0	52392	46278	41518
0	52398	46278	41508
0	52404	46278	41498
0	52410	46278	41488
0	52416	46278	41478
0	52422	46278	41468
0	52428	46278	41458
0	52434	46278	41448
0	52440	46278	41438
0	52446	46278	41428
0	52452	46278	41418
0	52458	46278	41408
0	52464	46278	41398
0	52470	46278	41388
0	52476	46278	41378
0	52482	46278	41368
0	52488	46278	41358
0	52494	46278	41348
0	52500	46278	41338
0	52506	46278	41328
0	52512	46278	41318
0	52518	46278	41308
0	52524	46278	41298
0	52530	46278	41288
0	52536	46278	41278
0	52542	46278	41268
0	52548	46278	41258
0	52554	46278	41248
0	52560	46278	41238
0	52566	46278	41228
0	52572	46278	41218
0	52578	46278	41208
0	52584	46278	41198
0	52590	46278	41188
0	52596	46278	41178
0	52602	46278	41168
0	52608	46278	41158
0	52614	46278	41148
0	52620	46278	41138
0	52626	46278	41128
0	52632	46278	41118
0	52638	46278	41108
0	52644	46278	41098
0	52650	46278	41088
0	52656	46278	41078
0	52662	46278	41068
0	52668	46278	41058
0	52674	46278	41048
0	52680	46278	41038
0	52686	46278	41028
0	52692	46278	41018
0	52698	46278	41008
0	52704	46278	40998
0	52710	46278	40988
0	52716	46278	40978
0	52722	46278	40968
0	52728	46278	40958
0	52734	46278	40948
0	52740	46278	40938
0	52746	46278	40928
0	52752	46278	40918
0	52758	46278	40908
0	52764	46278	40898
0	52770	46278	40888
0	52776	46278	40878
0	52782	46278	40868
0	52788	46278	40858
0	52794	46278	40848
0	52800	46278	40838
0	52806	46278	40828
0	52812	46278	40818
0	52818	46278	40808
0	52824	46278	40798
0	52830	46278	40788
0	52836	46278	40778
0	52842	46278	40768
0	52848	46278	40758
0	52854	46278	40748
0	52860	46278	40738
0	52866	46278	40728
0	52872	46278	40718
0	52878	46278	40708
0	52884	46278	40698
0	52890	46278	40688
0	52896	46278	40678
0	52902	46278	40668
0	52908	46278	40658
0	52914	46278	40648
0	52920	46278	40638
0	52926	46278	40628
0	52932	46278	40618
0	52938	46278	40608
0	52944	46278	40598
0	52950	46278	40588
0	52956	46278	40578
0	52962	46278	40568
0	52968	46278	40558
0	52974	46278	40548
0	52980	46278	40538
0	52986	46278	40528
0	52992	46278	40518
0	52998	46278	40508
0	53004	46278	40498
0	53010	46278	40488
0	53016	46278	40478
0	53022	46278	40468
0	53028	46278	40458
0	53034	46278	40448
0	53040	46278	40438
0	53046	46278	40428
0	53052	46278	40418
0	53058	46278	40408
0	53064	46278	40398
0	53070	46278	40388
0	53076	46278	40378
0	53082	46278	40368
0	53088	46278	40358
0	53094	46278	40348
0	53100	46278	40338
0	53106	46278	40328
0	53112	46278	40318
0	53118	46278	40308
0	53124	46278	40298
0	53130	46278	40288
0	53136	46278	40278
0	53142	46278	40268
0	53148	46278	40258
0	53154	46278	40248
0	53160	46278	40238
0	53166	46278	40228
0	53172	46278	40218
0	53178	46278	40208
0	53184	46278	40198
0	53190	46278	40188
0	53196	46278	40178
0	53202	46278	40168
0	53208	46278	40158
0	53214	46278	40148
0	53220	46278	40138
0	53226	46278	40128
0	53232	46278	40118
0	53238	46278	40108
0	53244	46278	40098
0	53250	46278	40088
0	53256	46278	40078
0	53262	46278	40068
0	53268	46278	40058
0	53274	46278	40048
0	53280	46278	40038
0	53286	46278	40028
0	53292	46278	40018
0	53298	46278	40008
0	53304	46278	39998
0	53310	46278	39988
0	53316	46278	39978
0	53322	46278	39968
0	53328	46278	39958
0	53334	46278	39948
0	53340	46278	39938
0	53346	46278	39928
0	53352	46278	39918
0	53358	46278	39908
0	53364	46278	39898
0	53370	46278	39888
0	53376	46278	39878
0	53382	46278	39868
0	53388	46278	39858
0	53394	46278	39848
0	53400	46278	39838
0	53406	46278	39828
0	53412	46278	39818
0	53418	46278	39808
0	53424	46278	39798
0	53430	46278	39788
0	53436	46278	39778
0	53442	46278	39768
0	53448	46278	39758
0	53454	46278	39748
0	53460	46278	39738
0	53466	46278	39728
0	53472	46278	39718
0	53478	46278	39708
0	53484	46278	39698
0	53490	46278	39688
0	53496	46278	39678
0	53502	46278	39668
0	53508	46278	39658
0	53514	46278	39648
0	53520	46278	39638
0	53526	46278	39628
0	53532	46278	39618
0	53538	46278	39608
0	53544	46278	39598
0	53550	46278	39588
0	53556	46278	39578
0	53562	46278	39568
0	53568	46278	39558
0	53574	46278	39548
0	53580	46278	39538
0	53586	46278	39528
0	53592	46278	39518
0	53598	46278	39508
0	53604	46278	39498
0	53610	46278	39488
0	53616	46278	39478
0	53622	46278	39468
0	53628	46278	39458
0	53634	46278	39448
0	53640	46278	39438
0	53646	46278	39428
0	53652	46278	39418
0	53658	46278	39408
0	53664	46278	39398
0	53670	46278	39388
0	53676	46278	39378
0	53682	46278	39368
0	53688	46278	39358
0	53694	46278	39348
0	53700	46278	39338
0	53706	46278	39328
0	53712	46278	39318
0	53718	46278	39308
0	53724	46278	39298
0	53730	46278	39288
0	53736	46278	39278
0	53742	46278	39268
0	53748	46278	39258
0	53754	46278	39248
0	53760	46278	39238
0	53766	46278	39228
0	53772	46278	39218
0	53778	46278	39208
0	53784	46278	39198
0	53790	46278	39188
0	53796	46278	39178
0	53802	46278	39168
0	53808	46278	39158
0	53814	46278	39148
0	53820	46278	39138
0	53826	46278	39128
0	53832	46278	39118
0	53838	46278	39108
0	53844	46278	39098
0	53850	46278	39088
0	53856	46278	39078
0	53862	46278	39068
0	53868	46278	39058
0	53874	46278	39048
0	53880	46278	39038
0	53886	46278	39028
0	53892	46278	39018
0	53898	46278	39008
0	53904	46278	38998
0	53910	46278	38988
0	53916	46278	38978
0	53922	46278	38968
0	53928	46278	38958
0	53934	46278	38948
0	53940	46278	38938
0	53946	46278	38928
0	53952	46278	38918
0	53958	46278	38908
0	53964	46278	38898
0	53970	46278	38888
0	53976	46278	38878
0	53982	46278	38868
0	53988	46278	38858
0	53994	46278	38848
0	54000	46278	38838
0	54006	46278	38828
0	54012	46278	38818
0	54018	46278	38808
0	54024	46278	38798
0	54030	46278	38788
0	54036	46278	38778
0	54042	46278	38768
0	54048	46278	38758
0	54054	46278	38748
0	54060	46278	38738
0	54066	46278	38728
0	54072	46278	38718
0	54078	46278	38708
0	54084	46278	38698
0	54090	46278	38688
0	54096	46278	38678
0	54102	46278	38668
0	54108	46278	38658
0	54114	46278	38648
0	54120	46278	38638
0	54126	46278	38628
0	54132	46278	38618
0	54138	46278	38608
0	54144	46278	38598
0	54150	46278	38588
0	54156	46278	38578
0	54162	46278	38568
0	54168	46278	38558
0	54174	46278	38548
0	54180	46278	38538
0	54186	46278	38528
0	54192	46278	38518
0	54198	46278	38508
0	54204	46278	38498
0	54210	46278	38488
0	54216	46278	38478
0	54222	46278	38468
0	54228	46278	38458
0	54234	46278	38448
0	54240	46278	38438
0	54246	46278	38428
0	54252	46278	38418
0	54258	46278	38408
0	54264	46278	38398
0	54270	46278	38388
0	54276	46278	38378
0	54282	46278	38368
0	54288	46278	38358
0	54294	46278	38348
0	54300	46278	38338
0	54306	46278	38328
0	54312	46278	38318
0	54318	46278	38308
0	54324	46278	38298
0	54330	46278	38288
0	54336	46278	38278
0	54342	46278	38268
0	54348	46278	38258
0	54354	46278	38248
0	54360	46278	38238
0	54366	46278	38228
0	54372	46278	38218
0	54378	46278	38208
0	54384	46278	38198
0	54390	46278	38188
0	54396	46278	38178
0	54402	46278	38168
0	54408	46278	38158
0	54414	46278	38148
0	54420	46278	38138
0	54426	46278	38128
0	54432	46278	38118
0	54438	46278	38108
0	54444	46278	38098
0	54450	46278	38088
0	54456	46278	38078
0	54462	46278	38068
0	54468	46278	38058
0	54474	46278	38048
0	54480	46278	38038
0	54486	46278	38028
0	54492	46278	38018
0	54498	46278	38008
0	54504	46278	37998
0	54510	46278	37988
0	54516	46278	37978
0	54522	46278	37968
0	54528	46278	37958
0	54534	46278	37948
0	54540	46278	37938
0	54546	46278	37928
0	54552	46278	37918
0	54558	46278	37908
0	54564	46278	37898
0	54570	46278	37888
0	54576	46278	37878
0	54582	46278	37868
0	54588	46278	37858
0	54594	46278	37848
0	54600	46278	37838
0	54606	46278	37828
0	54612	46278	37818
0	54618	46278	37808
0	54624	46278	37798
0	54630	46278	37788
0	54636	46278	37778
0	54642	46278	37768
0	54648	46278	37758
0	54654	46278	37748
0	54660	46278	37738
0	54666	46278	37728
0	54672	46278	37718
0	54678	46278	37708
0	54684	46278	37698
0	54690	46278	37688
0	54696	46278	37678
0	54702	46278	37668
0	54708	46278	37658
0	54714	46278	37648
0	54720	46278	37638
0	54726	46278	37628
0	54732	46278	37618
0	54738	46278	37608
0	54744	46278	37598
0	54750	46278	37588
0	54756	46278	37578
0	54762	46278	37568
0	54768	46278	37558
0	54774	46278	37548
0	54780	46278	37538
0	54786	46278	37528
0	54792	46278	37518
0	54798	46278	37508
0	54804	46278	37498
0	54810	46278	37488
0	54816	46278	37478
0	54822	46278	37468
0	54828	46278	37458
0	54834	46278	37448
0	54840	46278	37438
0	54846	46278	37428
0	54852	46278	37418
0	54858	46278	37408
0	54864	46278	37398
0	54870	46278	37388
0	54876	46278	37378
0	54882	46278	37368
0	54888	46278	37358
0	54894	46278	37348
0	54900	46278	37338
0	54906	46278	37328
0	54912	46278	37318
0	54918	46278	37308
0	54924	46278	37298
0	54930	46278	37288
0	54936	46278	37278
0	54942	46278	37268
0	54948	46278	37258
0	54954	46278	37248
0	54960	46278	37238
0	54966	46278	37228
0	54972	46278	37218
0	54978	46278	37208
0	54984	46278	37198
0	54990	46278	37188
0	54996	46278	37178
0	55002	46278	37168
0	55008	46278	37158
0	55014	46278	37148
0	55020	46278	37138
0	55026	46278	37128
0	55032	46278	37118
0	55038	46278	37108
0	55044	46278	37098
0	55050	46278	37088
0	55056	46278	37078
0	55062	46278	37068
0	55068	46278	37058
0	55074	46278	37048
0	55080	46278	37038
0	55086	46278	37028
0	55092	46278	37018
0	55098	46278	37008
0	55104	46278	36998
0	55110	46278	36988
0	55116	46278	36978
0	55122	46278	36968
0	55128	46278	36958
0	55134	46278	36948
0	55140	46278	36938
0	55146	46278	36928
0	55152	46278	36918
0	55158	46278	36908
0	55164	46278	36898
0	55170	46278	36888
0	55176	46278	36878
0	55182	46278	36868
0	55188	46278	36858
0	55194	46278	36848
0	55200	46278	36838
0	55206	46278	36828
0	55212	46278	36818
0	55218	46278	36808
0	55224	46278	36798
0	55230	46278	36788
0	55236	46278	36778
0	55242	46278	36768
0	55248	46278	36758
0	55254	46278	36748
0	55260	46278	36738
0	55266	46278	36728
0	55272	46278	36718
0	55278	46278	36708
0	55284	46278	36698
0	55290	46278	36688
0	55296	46278	36678
0	55302	46278	36668
0	55308	46278	36658
0	55314	46278	36648
0	55320	46278	36638
0	55326	46278	36628
0	55332	46278	36618
0	55338	46278	36608
0	55344	46278	36598
0	55350	46278	36588
0	55356	46278	36578
0	55362	46278	36568
0	55368	46278	36558
0	55374	46278	36548
0	55380	46278	36538
0	55386	46278	36528
0	55392	46278	36518
0	55398	46278	36508
0	55404	46278	36498
0	55410	46278	36488
0	55416	46278	36478
0	55422	46278	36468
0	55428	46278	36458
0	55434	46278	36448
0	55440	46278	36438
0	55446	46278	36428
0	55452	46278	36418
0	55458	46278	36408
0	55464	46278	36398
0	55470	46278	36388
0	55476	46278	36378
0	55482	46278	36368
0	55488	46278	36358
0	55494	46278	36348
0	55500	46278	36338
0	55506	46278	36328
0	55512	46278	36318
0	55518	46278	36308
0	55524	46278	36298
0	55530	46278	36288
0	55536	46278	36278
0	55542	46278	36268
0	55548	46278	36258
0	55554	46278	36248
0	55560	46278	36238
0	55566	46278	36228
0	55572	46278	36218
0	55578	46278	36208
0	55584	46278	36198
0	55590	46278	36188
0	55596	46278	36178
0	55602	46278	36168
0	55608	46278	36158
0	55614	46278	36148
0	55620	46278	36138
0	55626	46278	36128
0	55632	46278	36118
0	55638	46278	36108
0	55644	46278	36098
0	55650	46278	36088
0	55656	46278	36078
0	55662	46278	36068
0	55668	46278	36058
0	55674	46278	36048
0	55680	46278	36038
0	55686	46278	36028
0	55692	46278	36018
0	55698	46278	36008
0	55704	46278	35998
0	55710	46278	35988
0	55716	46278	35978
0	55722	46278	35968
0	55728	46278	35958
0	55734	46278	35948
0	55740	46278	35938
0	55746	46278	35928
0	55752	46278	35918
0	55758	46278	35908
0	55764	46278	35898
0	55770	46278	35888
0	55776	46278	35878
0	55782	46278	35868
0	55788	46278	35858
0	55794	46278	35848
0	55800	46278	35838
0	55806	46278	35828
0	55812	46278	35818
0	55818	46278	35808
0	55824	46278	35798
0	55830	46278	35788
0	55836	46278	35778
0	55842	46278	35768
0	55848	46278	35758
0	55854	46278	35748
0	55860	46278	35738
0	55866	46278	35728
0	55872	46278	35718
0	55878	46278	35708
0	55884	46278	35698
0	55890	46278	35688
0	55896	46278	35678
0	55902	46278	35668
0	55908	46278	35658
0	55914	46278	35648
0	55920	46278	35638
0	55926	46278	35628
0	55932	46278	35618
0	55938	46278	35608
0	55944	46278	35598
0	55950	46278	35588
0	55956	46278	35578
0	55962	46278	35568
0	55968	46278	35558
0	55974	46278	35548
0	55980	46278	35538
0	55986	46278	35528
0	55992	46278	35518
0	55998	46278	35508
0	56004	46278	35498
0	56010	46278	35488
0	56016	46278	35478
0	56022	46278	35468
0	56028	46278	35458
0	56034	46278	35448
0	56040	46278	35438
0	56046	46278	35428
0	56052	46278	35418
0	56058	46278	35408
0	56064	46278	35398
0	56070	46278	35388
0	56076	46278	35378
0	56082	46278	35368
0	56088	46278	35358
0	56094	46278	35348
0	56100	46278	35338
0	56106	46278	35328
0	56112	46278	35318
0	56118	46278	35308
0	56124	46278	35298
0	56130	46278	35288
0	56136	46278	35278
0	56142	46278	35268
0	56148	46278	35258
0	56154	46278	35248
0	56160	46278	35238
0	56166	46278	35228
0	56172	46278	35218
0	56178	46278	35208
0	56184	46278	35198
0	56190	46278	35188
0	56196	46278	35178
0	56202	46278	35168
0	56208	46278	35158
0	56214	46278	35148
0	56220	46278	35138
0	56226	46278	35128
0	56232	46278	35118
0	56238	46278	35108
0	56244	46278	35098
0	56250	46278	35088
0	56256	46278	35078
0	56262	46278	35068
0	56268	46278	35058
0	56274	46278	35048
0	56280	46278	35038
0	56286	46278	35028
0	56292	46278	35018
0	56298	46278	35008
0	56304	46278	34998
0	56310	46278	34988
0	56316	46278	34978
0	56322	46278	34968
0	56328	46278	34958
0	56334	46278	34948
0	56340	46278	34938
0	56346	46278	34928
0	56352	46278	34918
0	56358	46278	34908
0	56364	46278	34898
0	56370	46278	34888
0	56376	46278	34878
0	56382	46278	34868
0	56388	46278	34858
0	56394	46278	34848
0	56400	46278	34838
0	56406	46278	34828
0	56412	46278	34818
0	56418	46278	34808
0	56424	46278	34798
0	56430	46278	34788
0	56436	46278	34778
0	56442	46278	34768
0	56448	46278	34758
0	56454	46278	34748
0	56460	46278	34738
0	56466	46278	34728
0	56472	46278	34718
0	56478	46278	34708
0	56484	46278	34698
0	56490	46278	34688
0	56496	46278	34678
0	56502	46278	34668
0	56508	46278	34658
0	56514	46278	34648
0	56520	46278	34638
0	56526	46278	34628
0	56532	46278	34618
0	56538	46278	34608
0	56544	46278	34598
0	56550	46278	34588
0	56556	46278	34578
0	56562	46278	34568
0	56568	46278	34558
0	56574	46278	34548
0	56580	46278	34538
0	56586	46278	34528
0	56592	46278	34518
0	56598	46278	34508
0	56604	46278	34498
0	56610	46278	34488
0	56616	46278	34478
0	56622	46278	34468
0	56628	46278	34458
0	56634	46278	34448
0	56640	46278	34438
0	56646	46278	34428
0	56652	46278	34418
0	56658	46278	34408
0	56664	46278	34398
0	56670	46278	34388
0	56676	46278	34378
0	56682	46278	34368
0	56688	46278	34358
0	56694	46278	34348
0	56700	46278	34338
0	56706	46278	34328
0	56712	46278	34318
0	56718	46278	34308
0	56724	46278	34298
0	56730	46278	34288
0	56736	46278	34278
0	56742	46278	34268
0	56748	46278	34258
0	56754	46278	34248
0	56760	46278	34238
0	56766	46278	34228
0	56772	46278	34218
0	56778	46278	34208
0	56784	46278	34198
0	56790	46278	34188
0	56796	46278	34178
0	56802	46278	34168
0	56808	46278	34158
0	56814	46278	34148
0	56820	46278	34138
0	56826	46278	34128
0	56832	46278	34118
0	56838	46278	34108
0	56844	46278	34098
0	56850	46278	34088
0	56856	46278	34078
0	56862	46278	34068
0	56868	46278	34058
0	56874	46278	34048
0	56880	46278	34038
0	56886	46278	34028
0	56892	46278	34018
0	56898	46278	34008
0	56904	46278	33998
0	56910	46278	33988
0	56916	46278	33978
0	56922	46278	33968
0	56928	46278	33958
0	56934	46278	33948
0	56940	46278	33938
0	56946	46278	33928
0	56952	46278	33918
0	56958	46278	33908
0	56964	46278	33898
0	56970	46278	33888
0	56976	46278	33878
0	56982	46278	33868
0	56988	46278	33858
0	56994	46278	33848
0	57000	46278	33838
0	57006	46278	33828
0	57012	46278	33818
0	57018	46278	33808
0	57024	46278	33798
0	57030	46278	33788
0	57036	46278	33778
0	57042	46278	33768
0	57048	46278	33758
0	57054	46278	33748
0	57060	46278	33738
0	57066	46278	33728
0	57072	46278	33718
0	57078	46278	33708
0	57084	46278	33698
0	57090	46278	33688
0	57096	46278	33678
0	57102	46278	33668
0	57108	46278	33658
0	57114	46278	33648
0	57120	46278	33638
0	57126	46278	33628
0	57132	46278	33618
0	57138	46278	33608
0	57144	46278	33598
0	57150	46278	33588
0	57156	46278	33578
0	57162	46278	33568
0	57168	46278	33558
0	57174	46278	33548
0	57180	46278	33538
0	57186	46278	33528
0	57192	46278	33518
0	57198	46278	33508
0	57204	46278	33498
0	57210	46278	33488
0	57216	46278	33478
0	57222	46278	33468
0	57228	46278	33458
0	57234	46278	33448
0	57240	46278	33438
0	57246	46278	33428
0	57252	46278	33418
0	57258	46278	33408
0	57264	46278	33398
0	57270	46278	33388
0	57276	46278	33378
0	57282	46278	33368
0	57288	46278	33358
0	57294	46278	33348
0	57300	46278	33338
0	57306	46278	33328
0	57312	46278	33318
0	57318	46278	33308
0	57324	46278	33298
0	57330	46278	33288
0	57336	46278	33278
0	57342	46278	33268
0	57348	46278	33258
0	57354	46278	33248
0	57360	46278	33238
0	57366	46278	33228
0	57372	46278	33218
0	57378	46278	33208
0	57384	46278	33198
0	57390	46278	33188
0	57396	46278	33178
0	57402	46278	33168
0	57408	46278	33158
0	57414	46278	33148
0	57420	46278	33138
0	57426	46278	33128
0	57432	46278	33118
0	57438	46278	33108
0	57444	46278	33098
0	57450	46278	33088
0	57456	46278	33078
0	57462	46278	33068
0	57468	46278	33058
0	57474	46278	33048
0	57480	46278	33038
0	57486	46278	33028
0	57492	46278	33018
0	57498	46278	33008
0	57504	46278	32998
0	57510	46278	32988
0	57516	46278	32978
0	57522	46278	32968
0	57528	46278	32958
0	57534	46278	32948
0	57540	46278	32938
0	57546	46278	32928
0	57552	46278	32918
0	57558	46278	32908
0	57564	46278	32898
0	57570	46278	32888
0	57576	46278	32878
0	57582	46278	32868
0	57588	46278	32858
0	57594	46278	32848
0	57600	46278	32838
0	57606	46278	32828
0	57612	46278	32818
0	57618	46278	32808
0	57624	46278	32798
0	57630	46278	32788
0	57636	46278	32778
0	57642	46278	32768
0	57648	46278	32758
0	57654	46278	32748
0	57660	46278	32738
0	57666	46278	32728
0	57672	46278	32718
0	57678	46278	32708
0	57684	46278	32698
0	57690	46278	32688
0	57696	46278	32678
0	57702	46278	32668
0	57708	46278	32658
0	57714	46278	32648
0	57720	46278	32638
0	57726	46278	32628
0	57732	46278	32618
0	57738	46278	32608
0	57744	46278	32598
0	57750	46278	32588
0	57756	46278	32578
0	57762	46278	32568
0	57768	46278	32558
0	57774	46278	32548
0	57780	46278	32538
0	57786	46278	32528
0	57792	46278	32518
0	57798	46278	32508
0	57804	46278	32498
0	57810	46278	32488
0	57816	46278	32478
0	57822	46278	32468
0	57828	46278	32458
0	57834	46278	32448
0	57840	46278	32438
0	57846	46278	32428
0	57852	46278	32418
0	57858	46278	32408
0	57864	46278	32398
0	57870	46278	32388
0	57876	46278	32378
0	57882	46278	32368
0	57888	46278	32358
0	57894	46278	32348
0	57900	46278	32338
0	57906	46278	32328
0	57912	46278	32318
0	57918	46278	32308
0	57924	46278	32298
0	57930	46278	32288
0	57936	46278	32278
0	57942	46278	32268
0	57948	46278	32258
0	57954	46278	32248
0	57960	46278	32238
0	57966	46278	32228
0	57972	46278	32218
0	57978	46278	32208
0	57984	46278	32198
0	57990	46278	32188
0	57996	46278	32178
0	58002	46278	32168
0	58008	46278	32158
0	58014	46278	32148
0	58020	46278	32138
0	58026	46278	32128
0	58032	46278	32118
0	58038	46278	32108
0	58044	46278	32098
0	58050	46278	32088
0	58056	46278	32078
0	58062	46278	32068
0	58068	46278	32058
0	58074	46278	32048
0	58080	46278	32038
0	58086	46278	32028
0	58092	46278	32018
0	58098	46278	32008
0	58104	46278	31998
0	58110	46278	31988
0	58116	46278	31978
0	58122	46278	31968
0	58128	46278	31958
0	58134	46278	31948
0	58140	46278	31938
0	58146	46278	31928
0	58152	46278	31918
0	58158	46278	31908
0	58164	46278	31898
0	58170	46278	31888
0	58176	46278	31878
0	58182	46278	31868
0	58188	46278	31858
0	58194	46278	31848
0	58200	46278	31838
0	58206	46278	31828
0	58212	46278	31818
0	58218	46278	31808
0	58224	46278	31798
0	58230	46278	31788
0	58236	46278	31778
0	58242	46278	31768
0	58248	46278	31758
0	58254	46278	31748
0	58260	46278	31738
0	58266	46278	31728
0	58272	46278	31718
0	58278	46278	31708
0	58284	46278	31698
0	58290	46278	31688
0	58296	46278	31678
0	58302	46278	31668
0	58308	46278	31658
0	58314	46278	31648
0	58320	46278	31638
0	58326	46278	31628
0	58332	46278	31618
0	58338	46278	31608
0	58344	46278	31598
0	58350	46278	31588
0	58356	46278	31578
0	58362	46278	31568
0	58368	46278	31558
0	58374	46278	31548
0	58380	46278	31538
0	58386	46278	31528
0	58392	46278	31518
0	58398	46278	31508
0	58404	46278	31498
0	58410	46278	31488
0	58416	46278	31478
0	58422	46278	31468
0	58428	46278	31458
0	58434	46278	31448
0	58440	46278	31438
0	58446	46278	31428
0	58452	46278	31418
0	58458	46278	31408
0	58464	46278	31398
0	58470	46278	31388
0	58476	46278	31378
0	58482	46278	31368
0	58488	46278	31358
0	58494	46278	31348
0	58500	46278	31338
0	58506	46278	31328
0	58512	46278	31318
0	58518	46278	31308
0	58524	46278	31298
0	58530	46278	31288
0	58536	46278	31278
0	58542	46278	31268
0	58548	46278	31258
0	58554	46278	31248
0	58560	46278	31238
0	58566	46278	31228
0	58572	46278	31218
0	58578	46278	31208
0	58584	46278	31198
0	58590	46278	31188
0	58596	46278	31178
0	58602	46278	31168
0	58608	46278	31158
0	58614	46278	31148
0	58620	46278	31138
0	58626	46278	31128
0	58632	46278	31118
0	58638	46278	31108
0	58644	46278	31098
0	58650	46278	31088
0	58656	46278	31078
0	58662	46278	31068
0	58668	46278	31058
0	58674	46278	31048
0	58680	46278	31038
0	58686	46278	31028
0	58692	46278	31018
0	58698	46278	31008
0	58704	46278	30998
0	58710	46278	30988
0	58716	46278	30978
0	58722	46278	30968
0	58728	46278	30958
0	58734	46278	30948
0	58740	46278	30938
0	58746	46278	30928
0	58752	46278	30918
0	58758	46278	30908
0	58764	46278	30898
0	58770	46278	30888
0	58776	46278	30878
0	58782	46278	30868
0	58788	46278	30858
0	58794	46278	30848
0	58800	46278	30838
0	58806	46278	30828
0	58812	46278	30818
0	58818	46278	30808
0	58824	46278	30798
0	58830	46278	30788
0	58836	46278	30778
0	58842	46278	30768
0	58848	46278	30758
0	58854	46278	30748
0	58860	46278	30738
0	58866	46278	30728
0	58872	46278	30718
0	58878	46278	30708
0	58884	46278	30698
0	58890	46278	30688
0	58896	46278	30678
0	58902	46278	30668
0	58908	46278	30658
0	58914	46278	30648
0	58920	46278	30638
0	58926	46278	30628
0	58932	46278	30618
0	58938	46278	30608
0	58944	46278	30598
0	58950	46278	30588
0	58956	46278	30578
0	58962	46278	30568
0	58968	46278	30558
0	58974	46278	30548
0	58980	46278	30538
0	58986	46278	30528
0	58992	46278	30518
0	58998	46278	30508
0	59004	46278	30498
0	59010	46278	30488
0	59016	46278	30478
0	59022	46278	30468
0	59028	46278	30458
0	59034	46278	30448
0	59040	46278	30438
0	59046	46278	30428
0	59052	46278	30418
0	59058	46278	30408
0	59064	46278	30398
0	59070	46278	30388
0	59076	46278	30378
0	59082	46278	30368
0	59088	46278	30358
0	59094	46278	30348
0	59100	46278	30338
0	59106	46278	30328
0	59112	46278	30318
0	59118	46278	30308
0	59124	46278	30298
0	59130	46278	30288
0	59136	46278	30278
0	59142	46278	30268
0	59148	46278	30258
0	59154	46278	30248
0	59160	46278	30238
0	59166	46278	30228
0	59172	46278	30218
0	59178	46278	30208
0	59184	46278	30198
0	59190	46278	30188
0	59196	46278	30178
0	59202	46278	30168
0	59208	46278	30158
0	59214	46278	30148
0	59220	46278	30138
0	59226	46278	30128
0	59232	46278	30118
0	59238	46278	30108
0	59244	46278	30098
0	59250	46278	30088
0	59256	46278	30078
0	59262	46278	30068
0	59268	46278	30058
0	59274	46278	30048
0	59280	46278	30038
0	59286	46278	30028
0	59292	46278	30018
0	59298	46278	30008
0	59304	46278	29998
0	59310	46278	29988
0	59316	46278	29978
0	59322	46278	29968
0	59328	46278	29958
0	59334	46278	29948
0	59340	46278	29938
0	59346	46278	29928
0	59352	46278	29918
0	59358	46278	29908
0	59364	46278	29898
0	59370	46278	29888
0	59376	46278	29878
0	59382	46278	29868
0	59388	46278	29858
0	59394	46278	29848
0	59400	46278	29838
0	59406	46278	29828
0	59412	46278	29818
0	59418	46278	29808
0	59424	46278	29798
0	59430	46278	29788
0	59436	46278	29778
0	59442	46278	29768
0	59448	46278	29758
0	59454	46278	29748
0	59460	46278	29738
0	59466	46278	29728
0	59472	46278	29718
0	59478	46278	29708
0	59484	46278	29698
0	59490	46278	29688
0	59496	46278	29678
0	59502	46278	29668
0	59508	46278	29658
0	59514	46278	29648
0	59520	46278	29638
0	59526	46278	29628
0	59532	46278	29618
0	59538	46278	29608
0	59544	46278	29598
0	59550	46278	29588
0	59556	46278	29578
0	59562	46278	29568
0	59568	46278	29558
0	59574	46278	29548
0	59580	46278	29538
0	59586	46278	29528
0	59592	46278	29518
0	59598	46278	29508
0	59604	46278	29498
0	59610	46278	29488
0	59616	46278	29478
0	59622	46278	29468
0	59628	46278	29458
0	59634	46278	29448
0	59640	46278	29438
0	59646	46278	29428
0	59652	46278	29418
0	59658	46278	29408
0	59664	46278	29398
0	59670	46278	29388
0	59676	46278	29378
0	59682	46278	29368
0	59688	46278	29358
0	59694	46278	29348
0	59700	46278	29338
0	59706	46278	29328
0	59712	46278	29318
0	59718	46278	29308
0	59724	46278	29298
0	59730	46278	29288
0	59736	46278	29278
0	59742	46278	29268
0	59748	46278	29258
0	59754	46278	29248
0	59760	46278	29238
0	59766	46278	29228
0	59772	46278	29218
0	59778	46278	29208
0	59784	46278	29198
0	59790	46278	29188
0	59796	46278	29178
0	59802	46278	29168
0	59808	46278	29158
0	59814	46278	29148
0	59820	46278	29138
0	59826	46278	29128
0	59832	46278	29118
0	59838	46278	29108
0	59844	46278	29098
0	59850	46278	29088
0	59856	46278	29078
0	59862	46278	29068
0	59868	46278	29058
0	59874	46278	29048
0	59880	46278	29038
0	59886	46278	29028
0	59892	46278	29018
0	59898	46278	29008
0	59904	46278	28998
0	59910	46278	28988
0	59916	46278	28978
0	59922	46278	28968
0	59928	46278	28958
0	59934	46278	28948
0	59940	46278	28938
0	59946	46278	28928
0	59952	46278	28918
0	59958	46278	28908
0	59964	46278	28898
0	59970	46278	28888
0	59976	46278	28878
0	59982	46278	28868
0	59988	46278	28858
0	59994	46278	28848
0	60000	46278	28838
0	60006	46278	28828
0	60012	46278	28818
0	60018	46278	28808
0	60024	46278	28798
0	60030	46278	28788
0	60036	46278	28778
0	60042	46278	28768
0	60048	46278	28758
0	60054	46278	28748
0	60060	46278	28738
0	60066	46278	28728
0	60072	46278	28718
0	60078	46278	28708
0	60084	46278	28698
0	60090	46278	28688
0	60096	46278	28678
0	60102	46278	28668
0	60108	46278	28658
0	60114	46278	28648
0	60120	46278	28638
0	60126	46278	28628
0	60132	46278	28618
0	60138	46278	28608
0	60144	46278	28598
0	60150	46278	28588
0	60156	46278	28578
0	60162	46278	28568
0	60168	46278	28558
0	60174	46278	28548
0	60180	46278	28538
0	60186	46278	28528
0	60192	46278	28518
0	60198	46278	28508
0	60204	46278	28498
0	60210	46278	28488
0	60216	46278	28478
0	60222	46278	28468
0	60228	46278	28458
0	60234	46278	28448
0	60240	46278	28438
0	60246	46278	28428
0	60252	46278	28418
0	60258	46278	28408
0	60264	46278	28398
0	60270	46278	28388
0	60276	46278	28378
0	60282	46278	28368
0	60288	46278	28358
0	60294	46278	28348
0	60300	46278	28338
0	60306	46278	28328
0	60312	46278	28318
0	60318	46278	28308
0	60324	46278	28298
0	60330	46278	28288
0	60336	46278	28278
0	60342	46278	28268
0	60348	46278	28258
0	60354	46278	28248
0	60360	46278	28238
0	60366	46278	28228
0	60372	46278	28218
0	60378	46278	28208
0	60384	46278	28198
0	60390	46278	28188
0	60396	46278	28178
0	60402	46278	28168
0	60408	46278	28158
0	60414	46278	28148
0	60420	46278	28138
0	60426	46278	28128
0	60432	46278	28118
0	60438	46278	28108
0	60444	46278	28098
0	60450	46278	28088
0	60456	46278	28078
0	60462	46278	28068
0	60468	46278	28058
0	60474	46278	28048
0	60480	46278	28038
0	60486	46278	28028
0	60492	46278	28018
0	60498	46278	28008
0	60504	46278	27998
0	60510	46278	27988
0	60516	46278	27978
0	60522	46278	27968
0	60528	46278	27958
0	60534	46278	27948
0	60540	46278	27938
0	60546	46278	27928
0	60552	46278	27918
0	60558	46278	27908
0	60564	46278	27898
0	60570	46278	27888
0	60576	46278	27878
0	60582	46278	27868
0	60588	46278	27858
0	60594	46278	27848
0	60600	46278	27838
0	60606	46278	27828
0	60612	46278	27818
0	60618	46278	27808
0	60624	46278	27798
0	60630	46278	27788
0	60636	46278	27778
0	60642	46278	27768
0	60648	46278	27758
0	60654	46278	27748
0	60660	46278	27738
0	60666	46278	27728
0	60672	46278	27718
0	60678	46278	27708
0	60684	46278	27698
0	60690	46278	27688
0	60696	46278	27678
0	60702	46278	27668
0	60708	46278	27658
0	60714	46278	27648
0	60720	46278	27638
0	60726	46278	27628
0	60732	46278	27618
0	60738	46278	27608
0	60744	46278	27598
0	60750	46278	27588
0	60756	46278	27578
0	60762	46278	27568
0	60768	46278	27558
0	60774	46278	27548
0	60780	46278	27538
0	60786	46278	27528
0	60792	46278	27518
0	60798	46278	27508
0	60804	46278	27498
0	60810	46278	27488
0	60816	46278	27478
0	60822	46278	27468
0	60828	46278	27458
0	60834	46278	27448
0	60840	46278	27438
0	60846	46278	27428
0	60852	46278	27418
0	60858	46278	27408
0	60864	46278	27398
0	60870	46278	27388
0	60876	46278	27378
0	60882	46278	27368
0	60888	46278	27358
0	60894	46278	27348
0	60900	46278	27338
0	60906	46278	27328
0	60912	46278	27318
0	60918	46278	27308
0	60924	46278	27298
0	60930	46278	27288
0	60936	46278	27278
0	60942	46278	27268
0	60948	46278	27258
0	60954	46278	27248
0	60960	46278	27238
0	60966	46278	27228
0	60972	46278	27218
0	60978	46278	27208
0	60984	46278	27198
0	60990	46278	27188
0	60996	46278	27178
0	61002	46278	27168
0	61008	46278	27158
0	61014	46278	27148
0	61020	46278	27138
0	61026	46278	27128
0	61032	46278	27118
0	61038	46278	27108
0	61044	46278	27098
0	61050	46278	27088
0	61056	46278	27078
0	61062	46278	27068
0	61068	46278	27058
0	61074	46278	27048
0	61080	46278	27038
0	61086	46278	27028
0	61092	46278	27018
0	61098	46278	27008
0	61104	46278	26998
0	61110	46278	26988
0	61116	46278	26978
0	61122	46278	26968
0	61128	46278	26958
0	61134	46278	26948
0	61140	46278	26938
0	61146	46278	26928
0	61152	46278	26918
0	61158	46278	26908
0	61164	46278	26898
0	61170	46278	26888
0	61176	46278	26878
0	61182	46278	26868
0	61188	46278	26858
0	61194	46278	26848
0	61200	46278	26838
0	61206	46278	26828
0	61212	46278	26818
0	61218	46278	26808
0	61224	46278	26798
0	61230	46278	26788
0	61236	46278	26778
0	61242	46278	26768
0	61248	46278	26758
0	61254	46278	26748
0	61260	46278	26738
0	61266	46278	26728
0	61272	46278	26718
0	61278	46278	26708
0	61284	46278	26698
0	61290	46278	26688
0	61296	46278	26678
0	61302	46278	26668
0	61308	46278	26658
0	61314	46278	26648
0	61320	46278	26638
0	61326	46278	26628
0	61332	46278	26618
0	61338	46278	26608
0	61344	46278	26598
0	61350	46278	26588
0	61356	46278	26578
0	61362	46278	26568
0	61368	46278	26558
0	61374	46278	26548
0	61380	46278	26538
0	61386	46278	26528
0	61392	46278	26518
0	61398	46278	26508
0	61404	46278	26498
0	61410	46278	26488
0	61416	46278	26478
0	61422	46278	26468
0	61428	46278	26458
0	61434	46278	26448
0	61440	46278	26438
0	61446	46278	26428
0	61452	46278	26418
0	61458	46278	26408
0	61464	46278	26398
0	61470	46278	26388
0	61476	46278	26378
0	61482	46278	26368
0	61488	46278	26358
0	61494	46278	26348
0	61500	46278	26338
0	61506	46278	26328
0	61512	46278	26318
0	61518	46278	26308
0	61524	46278	26298
0	61530	46278	26288
0	61536	46278	26278
0	61542	46278	26268
0	61548	46278	26258
0	61554	46278	26248
0	61560	46278	26238
0	61566	46278	26228
0	61572	46278	26218
0	61578	46278	26208
0	61584	46278	26198
0	61590	46278	26188
0	61596	46278	26178
0	61602	46278	26168
0	61608	46278	26158
0	61614	46278	26148
0	61620	46278	26138
0	61626	46278	26128
0	61632	46278	26118
0	61638	46278	26108
0	61644	46278	26098
0	61650	46278	26088
0	61656	46278	26078
0	61662	46278	26068
0	61668	46278	26058
0	61674	46278	26048
0	61680	46278	26038
0	61686	46278	26028
0	61692	46278	26018
0	61698	46278	26008
0	61704	46278	25998
0	61710	46278	25988
0	61716	46278	25978
0	61722	46278	25968
0	61728	46278	25958
0	61734	46278	25948
0	61740	46278	25938
0	61746	46278	25928
0	61752	46278	25918
0	61758	46278	25908
0	61764	46278	25898
0	61770	46278	25888
0	61776	46278	25878
0	61782	46278	25868
0	61788	46278	25858
0	61794	46278	25848
0	61800	46278	25838
0	61806	46278	25828
0	61812	46278	25818
0	61818	46278	25808
0	61824	46278	25798
0	61830	46278	25788
0	61836	46278	25778
0	61842	46278	25768
0	61848	46278	25758
0	61854	46278	25748
0	61860	46278	25738
0	61866	46278	25728
0	61872	46278	25718
0	61878	46278	25708
0	61884	46278	25698
0	61890	46278	25688
0	61896	46278	25678
0	61902	46278	25668
0	61908	46278	25658
0	61914	46278	25648
0	61920	46278	25638
0	61926	46278	25628
0	61932	46278	25618
0	61938	46278	25608
0	61944	46278	25598
0	61950	46278	25588
0	61956	46278	25578
0	61962	46278	25568
0	61968	46278	25558
0	61974	46278	25548
0	61980	46278	25538
0	61986	46278	25528
0	61992	46278	25518
0	61998	46278	25508
0	62004	46278	25498
0	62010	46278	25488
0	62016	46278	25478
0	62022	46278	25468
0	62028	46278	25458
0	62034	46278	25448
0	62040	46278	25438
0	62046	46278	25428
0	62052	46278	25418
0	62058	46278	25408
0	62064	46278	25398
0	62070	46278	25388
0	62076	46278	25378
0	62082	46278	25368
0	62088	46278	25358
0	62094	46278	25348
0	62100	46278	25338
0	62106	46278	25328
0	62112	46278	25318
0	62118	46278	25308
0	62124	46278	25298
0	62130	46278	25288
0	62136	46278	25278
0	62142	46278	25268
0	62148	46278	25258
0	62154	46278	25248
0	62160	46278	25238
0	62166	46278	25228
0	62172	46278	25218
0	62178	46278	25208
0	62184	46278	25198
0	62190	46278	25188
0	62196	46278	25178
0	62202	46278	25168
0	62208	46278	25158
0	62214	46278	25148
0	62220	46278	25138
0	62226	46278	25128
0	62232	46278	25118
0	62238	46278	25108
0	62244	46278	25098
0	62250	46278	25088
0	62256	46278	25078
0	62262	46278	25068
0	62268	46278	25058
0	62274	46278	25048
0	62280	46278	25038
0	62286	46278	25028
0	62292	46278	25018
0	62298	46278	25008
0	62304	46278	24998
0	62310	46278	24988
0	62316	46278	24978
0	62322	46278	24968
0	62328	46278	24958
0	62334	46278	24948
0	62340	46278	24938
0	62346	46278	24928
0	62352	46278	24918
0	62358	46278	24908
0	62364	46278	24898
0	62370	46278	24888
0	62376	46278	24878
0	62382	46278	24868
0	62388	46278	24858
0	62394	46278	24848
0	62400	46278	24838
0	62406	46278	24828
0	62412	46278	24818
0	62418	46278	24808
0	62424	46278	24798
0	62430	46278	24788
0	62436	46278	24778
0	62442	46278	24768
0	62448	46278	24758
0	62454	46278	24748
0	62460	46278	24738
0	62466	46278	24728
0	62472	46278	24718
0	62478	46278	24708
0	62484	46278	24698
0	62490	46278	24688
0	62496	46278	24678
0	62502	46278	24668
0	62508	46278	24658
0	62514	46278	24648
0	62520	46278	24638
0	62526	46278	24628
0	62532	46278	24618
0	62538	46278	24608
0	62544	46278	24598
0	62550	46278	24588
0	62556	46278	24578
0	62562	46278	24568
0	62568	46278	24558
0	62574	46278	24548
0	62580	46278	24538
0	62586	46278	24528
0	62592	46278	24518
0	62598	46278	24508
0	62604	46278	24498
0	62610	46278	24488
0	62616	46278	24478
0	62622	46278	24468
0	62628	46278	24458
0	62634	46278	24448
0	62640	46278	24438
0	62646	46278	24428
0	62652	46278	24418
0	62658	46278	24408
0	62664	46278	24398
0	62670	46278	24388
0	62676	46278	24378
0	62682	46278	24368
0	62688	46278	24358
0	62694	46278	24348
0	62700	46278	24338
0	62706	46278	24328
0	62712	46278	24318
0	62718	46278	24308
0	62724	46278	24298
0	62730	46278	24288
0	62736	46278	24278
0	62742	46278	24268
0	62748	46278	24258
0	62754	46278	24248
0	62760	46278	24238
0	62766	46278	24228
0	62772	46278	24218
0	62778	46278	24208
0	62784	46278	24198
0	62790	46278	24188
0	62796	46278	24178
0	62802	46278	24168
0	62808	46278	24158
0	62814	46278	24148
0	62820	46278	24138
0	62826	46278	24128
0	62832	46278	24118
0	62838	46278	24108
0	62844	46278	24098
0	62850	46278	24088
0	62856	46278	24078
0	62862	46278	24068
0	62868	46278	24058
0	62874	46278	24048
0	62880	46278	24038
0	62886	46278	24028
0	62892	46278	24018
0	62898	46278	24008
0	62904	46278	23998
0	62910	46278	23988
0	62916	46278	23978
0	62922	46278	23968
0	62928	46278	23958
0	62934	46278	23948
0	62940	46278	23938
0	62946	46278	23928
0	62952	46278	23918
0	62958	46278	23908
0	62964	46278	23898
0	62970	46278	23888
0	62976	46278	23878
0	62982	46278	23868
0	62988	46278	23858
0	62994	46278	23848
0	63000	46278	23838
0	63006	46278	23828
0	63012	46278	23818
0	63018	46278	23808
0	63024	46278	23798
0	63030	46278	23788
0	63036	46278	23778
0	63042	46278	23768
0	63048	46278	23758
0	63054	46278	23748
0	63060	46278	23738
0	63066	46278	23728
0	63072	46278	23718
0	63078	46278	23708
0	63084	46278	23698
0	63090	46278	23688
0	63096	46278	23678
0	63102	46278	23668
0	63108	46278	23658
0	63114	46278	23648
0	63120	46278	23638
0	63126	46278	23628
0	63132	46278	23618
0	63138	46278	23608
0	63144	46278	23598
0	63150	46278	23588
0	63156	46278	23578
0	63162	46278	23568
0	63168	46278	23558
0	63174	46278	23548
0	63180	46278	23538
0	63186	46278	23528
0	63192	46278	23518
0	63198	46278	23508
0	63204	46278	23498
0	63210	46278	23488
0	63216	46278	23478
0	63222	46278	23468
0	63228	46278	23458
0	63234	46278	23448
0	63240	46278	23438
0	63246	46278	23428
0	63252	46278	23418
0	63258	46278	23408
0	63264	46278	23398
0	63270	46278	23388
0	63276	46278	23378
0	63282	46278	23368
0	63288	46278	23358
0	63294	46278	23348
0	63300	46278	23338
0	63306	46278	23328
0	63312	46278	23318
0	63318	46278	23308
0	63324	46278	23298
0	63330	46278	23288
0	63336	46278	23278
0	63342	46278	23268
0	63348	46278	23258
0	63354	46278	23248
0	63360	46278	23238
0	63366	46278	23228
0	63372	46278	23218
0	63378	46278	23208
0	63384	46278	23198
0	63390	46278	23188
0	63396	46278	23178
0	63402	46278	23168
0	63408	46278	23158
0	63414	46278	23148
0	63420	46278	23138
0	63426	46278	23128
0	63432	46278	23118
0	63438	46278	23108
0	63444	46278	23098
0	63450	46278	23088
0	63456	46278	23078
0	63462	46278	23068
0	63468	46278	23058
0	63474	46278	23048
0	63480	46278	23038
0	63486	46278	23028
0	63492	46278	23018
0	63498	46278	23008
0	63504	46278	22998
0	63510	46278	22988
0	63516	46278	22978
0	63522	46278	22968
0	63528	46278	22958
0	63534	46278	22948
0	63540	46278	22938
0	63546	46278	22928
0	63552	46278	22918
0	63558	46278	22908
0	63564	46278	22898
0	63570	46278	22888
0	63576	46278	22878
0	63582	46278	22868
0	63588	46278	22858
0	63594	46278	22848
0	63600	46278	22838
0	63606	46278	22828
0	63612	46278	22818
0	63618	46278	22808
0	63624	46278	22798
0	63630	46278	22788
0	63636	46278	22778
0	63642	46278	22768
0	63648	46278	22758
0	63654	46278	22748
0	63660	46278	22738
0	63666	46278	22728
0	63672	46278	22718
0	63678	46278	22708
0	63684	46278	22698
0	63690	46278	22688
0	63696	46278	22678
0	63702	46278	22668
0	63708	46278	22658
0	63714	46278	22648
0	63720	46278	22638
0	63726	46278	22628
0	63732	46278	22618
0	63738	46278	22608
0	63744	46278	22598
0	63750	46278	22588
0	63756	46278	22578
0	63762	46278	22568
0	63768	46278	22558
0	63774	46278	22548
0	63780	46278	22538
0	63786	46278	22528
0	63792	46278	22518
0	63798	46278	22508
0	63804	46278	22498
0	63810	46278	22488
0	63816	46278	22478
0	63822	46278	22468
0	63828	46278	22458
0	63834	46278	22448
0	63840	46278	22438
0	63846	46278	22428
0	63852	46278	22418
0	63858	46278	22408
0	63864	46278	22398
0	63870	46278	22388
0	63876	46278	22378
0	63882	46278	22368
0	63888	46278	22358
0	63894	46278	22348
0	63900	46278	22338
0	63906	46278	22328
0	63912	46278	22318
0	63918	46278	22308
0	63924	46278	22298
0	63930	46278	22288
0	63936	46278	22278
0	63942	46278	22268
0	63948	46278	22258
0	63954	46278	22248
0	63960	46278	22238
0	63966	46278	22228
0	63972	46278	22218
0	63978	46278	22208
0	63984	46278	22198
0	63990	46278	22188
0	63996	46278	22178
0	64002	46278	22168
0	64008	46278	22158
0	64014	46278	22148
0	64020	46278	22138
0	64026	46278	22128
0	64032	46278	22118
0	64038	46278	22108
0	64044	46278	22098
0	64050	46278	22088
0	64056	46278	22078
0	64062	46278	22068
0	64068	46278	22058
0	64074	46278	22048
0	64080	46278	22038
0	64086	46278	22028
0	64092	46278	22018
0	64098	46278	22008
0	64104	46278	21998
0	64110	46278	21988
0	64116	46278	21978
0	64122	46278	21968
0	64128	46278	21958
0	64134	46278	21948
0	64140	46278	21938
0	64146	46278	21928
0	64152	46278	21918
0	64158	46278	21908
0	64164	46278	21898
0	64170	46278	21888
0	64176	46278	21878
0	64182	46278	21868
0	64188	46278	21858
0	64194	46278	21848
0	64200	46278	21838
0	64206	46278	21828
0	64212	46278	21818
0	64218	46278	21808
0	64224	46278	21798
0	64230	46278	21788
0	64236	46278	21778
0	64242	46278	21768
0	64248	46278	21758
0	64254	46278	21748
0	64260	46278	21738
0	64266	46278	21728
0	64272	46278	21718
0	64278	46278	21708
0	64284	46278	21698
0	64290	46278	21688
0	64296	46278	21678
0	64302	46278	21668
0	64308	46278	21658
0	64314	46278	21648
0	64320	46278	21638
0	64326	46278	21628
0	64332	46278	21618
0	64338	46278	21608
0	64344	46278	21598
0	64350	46278	21588
0	64356	46278	21578
0	64362	46278	21568
0	64368	46278	21558
0	64374	46278	21548
0	64380	46278	21538
0	64386	46278	21528
0	64392	46278	21518
0	64398	46278	21508
0	64404	46278	21498
0	64410	46278	21488
0	64416	46278	21478
0	64422	46278	21468
0	64428	46278	21458
0	64434	46278	21448
0	64440	46278	21438
0	64446	46278	21428
0	64452	46278	21418
0	64458	46278	21408
0	64464	46278	21398
0	64470	46278	21388
0	64476	46278	21378
0	64482	46278	21368
0	64488	46278	21358
0	64494	46278	21348
0	64500	46278	21338
0	64506	46278	21328
0	64512	46278	21318
0	64518	46278	21308
0	64524	46278	21298
0	64530	46278	21288
0	64536	46278	21278
0	64542	46278	21268
0	64548	46278	21258
0	64554	46278	21248
0	64560	46278	21238
0	64566	46278	21228
0	64572	46278	21218
0	64578	46278	21208
0	64584	46278	21198
0	64590	46278	21188
0	64596	46278	21178
0	64602	46278	21168
0	64608	46278	21158
0	64614	46278	21148
0	64620	46278	21138
0	64626	46278	21128
0	64632	46278	21118
0	64638	46278	21108
0	64644	46278	21098
0	64650	46278	21088
0	64656	46278	21078
0	64662	46278	21068
0	64668	46278	21058
0	64674	46278	21048
0	64680	46278	21038
0	64686	46278	21028
0	64692	46278	21018
0	64698	46278	21008
0	64704	46278	20998
0	64710	46278	20988
0	64716	46278	20978
0	64722	46278	20968
0	64728	46278	20958
0	64734	46278	20948
0	64740	46278	20938
0	64746	46278	20928
0	64752	46278	20918
0	64758	46278	20908
0	64764	46278	20898
0	64770	46278	20888
0	64776	46278	20878
0	64782	46278	20868
0	64788	46278	20858
0	64794	46278	20848
0	64800	46278	20838
0	64806	46278	20828
0	64812	46278	20818
0	64818	46278	20808
0	64824	46278	20798
0	64830	46278	20788
0	64836	46278	20778
0	64842	46278	20768
0	64848	46278	20758
0	64854	46278	20748
0	64860	46278	20738
0	64866	46278	20728
0	64872	46278	20718
0	64878	46278	20708
0	64884	46278	20698
0	64890	46278	20688
0	64896	46278	20678
0	64902	46278	20668
0	64908	46278	20658
0	64914	46278	20648
0	64920	46278	20638
0	64926	46278	20628
0	64932	46278	20618
0	64938	46278	20608
0	64944	46278	20598
0	64950	46278	20588
0	64956	46278	20578
0	64962	46278	20568
0	64968	46278	20558
0	64974	46278	20548
0	64980	46278	20538
0	64986	46278	20528
0	64992	46278	20518
0	64998	46278	20508
0	65004	46278	20498
0	65010	46278	20488
0	65016	46278	20478
0	65022	46278	20468
0	65028	46278	20458
0	65034	46278	20448
0	65040	46278	20438
0	65046	46278	20428
0	65052	46278	20418
0	65058	46278	20408
0	65064	46278	20398
0	65070	46278	20388
0	65076	46278	20378
0	65082	46278	20368
0	65088	46278	20358
0	65094	46278	20348
0	65100	46278	20338
0	65106	46278	20328
0	65112	46278	20318
0	65118	46278	20308
0	65124	46278	20298
0	65130	46278	20288
0	65136	46278	20278
0	65142	46278	20268
0	65148	46278	20258
0	65154	46278	20248
0	65160	46278	20238
0	65166	46278	20228
0	65172	46278	20218
0	65178	46278	20208
0	65184	46278	20198
0	65190	46278	20188
0	65196	46278	20178
0	65202	46278	20168
0	65208	46278	20158
0	65214	46278	20148
0	65220	46278	20138
0	65226	46278	20128
0	65232	46278	20118
0	65238	46278	20108
0	65244	46278	20098
0	65250	46278	20088
0	65256	46278	20078
0	65262	46278	20068
0	65268	46278	20058
0	65274	46278	20048
0	65280	46278	20038
0	65286	46278	20028
0	65292	46278	20018
0	65298	46278	20008
0	65304	46278	19998
0	65310	46278	19988
0	65316	46278	19978
0	65322	46278	19968
0	65328	46278	19958
0	65334	46278	19948
0	65340	46278	19938
0	65346	46278	19928
0	65352	46278	19918
0	65358	46278	19908
0	65364	46278	19898
0	65370	46278	19888
0	65376	46278	19878
0	65382	46278	19868
0	65388	46278	19858
0	65394	46278	19848
0	65400	46278	19838
0	65406	46278	19828
0	65412	46278	19818
0	65418	46278	19808
0	65424	46278	19798
0	65430	46278	19788
0	65436	46278	19778
0	65442	46278	19768
0	65448	46278	19758
0	65454	46278	19748
0	65460	46278	19738
0	65466	46278	19728
0	65472	46278	19718
0	65478	46278	19708
0	65484	46278	19698
0	65490	46278	19688
0	65496	46278	19678
0	65502	46278	19668
0	65508	46278	19658
0	65514	46278	19648
0	65520	46278	19638
0	65526	46278	19628
0	65532	46278	19618
0	65538	46278	19608
0	65544	46278	19598
0	65550	46278	19588
0	65556	46278	19578
0	65562	46278	19568
0	65568	46278	19558
0	65574	46278	19548
0	65580	46278	19538
0	65586	46278	19528
0	65592	46278	19518
0	65598	46278	19508
0	65604	46278	19498
0	65610	46278	19488
0	65616	46278	19478
0	65622	46278	19468
0	65628	46278	19458
0	65634	46278	19448
0	65640	46278	19438
0	65646	46278	19428
0	65652	46278	19418
0	65658	46278	19408
0	65664	46278	19398
0	65670	46278	19388
0	65676	46278	19378
0	65682	46278	19368
0	65688	46278	19358
0	65694	46278	19348
0	65700	46278	19338
0	65706	46278	19328
0	65712	46278	19318
0	65718	46278	19308
0	65724	46278	19298
0	65730	46278	19288
0	65736	46278	19278
0	65742	46278	19268
0	65748	46278	19258
0	65754	46278	19248
0	65760	46278	19238
0	65766	46278	19228
0	65772	46278	19218
0	65778	46278	19208
0	65784	46278	19198
0	65790	46278	19188
0	65796	46278	19178
0	65802	46278	19168
0	65808	46278	19158
0	65814	46278	19148
0	65820	46278	19138
0	65826	46278	19128
0	65832	46278	19118
0	65838	46278	19108
0	65844	46278	19098
0	65850	46278	19088
0	65856	46278	19078
0	65862	46278	19068
0	65868	46278	19058
0	65874	46278	19048
0	65880	46278	19038
0	65886	46278	19028
0	65892	46278	19018
0	65898	46278	19008
0	65904	46278	18998
0	65910	46278	18988
0	65916	46278	18978
0	65922	46278	18968
0	65928	46278	18958
0	65934	46278	18948
0	65940	46278	18938
0	65946	46278	18928
0	65952	46278	18918
0	65958	46278	18908
0	65964	46278	18898
0	65970	46278	18888
0	65976	46278	18878
0	65982	46278	18868
0	65988	46278	18858
0	65994	46278	18848
0	66000	46278	18838
0	66006	46278	18828
0	66012	46278	18818
0	66018	46278	18808
0	66024	46278	18798
0	66030	46278	18788
0	66036	46278	18778
0	66042	46278	18768
0	66048	46278	18758
0	66054	46278	18748
0	66060	46278	18738
0	66066	46278	18728
0	66072	46278	18718
0	66078	46278	18708
0	66084	46278	18698
0	66090	46278	18688
0	66096	46278	18678
0	66102	46278	18668
0	66108	46278	18658
0	66114	46278	18648
0	66120	46278	18638
0	66126	46278	18628
0	66132	46278	18618
0	66138	46278	18608
0	66144	46278	18598
0	66150	46278	18588
0	66156	46278	18578
0	66162	46278	18568
0	66168	46278	18558
0	66174	46278	18548
0	66180	46278	18538
0	66186	46278	18528
0	66192	46278	18518
0	66198	46278	18508
0	66204	46278	18498
0	66210	46278	18488
0	66216	46278	18478
0	66222	46278	18468
0	66228	46278	18458
0	66234	46278	18448
0	66240	46278	18438
0	66246	46278	18428
0	66252	46278	18418
0	66258	46278	18408
0	66264	46278	18398
0	66270	46278	18388
0	66276	46278	18378
0	66282	46278	18368
0	66288	46278	18358
0	66294	46278	18348
0	66300	46278	18338
0	66306	46278	18328
0	66312	46278	18318
0	66318	46278	18308
0	66324	46278	18298
0	66330	46278	18288
0	66336	46278	18278
0	66342	46278	18268
0	66348	46278	18258
0	66354	46278	18248
0	66360	46278	18238
0	66366	46278	18228
0	66372	46278	18218
0	66378	46278	18208
0	66384	46278	18198
0	66390	46278	18188
0	66396	46278	18178
0	66402	46278	18168
0	66408	46278	18158
0	66414	46278	18148
0	66420	46278	18138
0	66426	46278	18128
0	66432	46278	18118
0	66438	46278	18108
0	66444	46278	18098
0	66450	46278	18088
0	66456	46278	18078
0	66462	46278	18068
0	66468	46278	18058
0	66474	46278	18048
0	66480	46278	18038
0	66486	46278	18028
0	66492	46278	18018
0	66498	46278	18008
0	66504	46278	17998
0	66510	46278	17988
0	66516	46278	17978
0	66522	46278	17968
0	66528	46278	17958
0	66534	46278	17948
0	66540	46278	17938
0	66546	46278	17928
0	66552	46278	17918
0	66558	46278	17908
0	66564	46278	17898
0	66570	46278	17888
0	66576	46278	17878
0	66582	46278	17868
0	66588	46278	17858
0	66594	46278	17848
0	66600	46278	17838
0	66606	46278	17828
0	66612	46278	17818
0	66618	46278	17808
0	66624	46278	17798
0	66630	46278	17788
0	66636	46278	17778
0	66642	46278	17768
0	66648	46278	17758
0	66654	46278	17748
0	66660	46278	17738
0	66666	46278	17728
0	66672	46278	17718
0	66678	46278	17708
0	66684	46278	17698
0	66690	46278	17688
0	66696	46278	17678
0	66702	46278	17668
0	66708	46278	17658
0	66714	46278	17648
0	66720	46278	17638
0	66726	46278	17628
0	66732	46278	17618
0	66738	46278	17608
0	66744	46278	17598
0	66750	46278	17588
0	66756	46278	17578
0	66762	46278	17568
0	66768	46278	17558
0	66774	46278	17548
0	66780	46278	17538
0	66786	46278	17528
0	66792	46278	17518
0	66798	46278	17508
0	66804	46278	17498
0	66810	46278	17488
0	66816	46278	17478
0	66822	46278	17468
0	66828	46278	17458
0	66834	46278	17448
0	66840	46278	17438
0	66846	46278	17428
0	66852	46278	17418
0	66858	46278	17408
0	66864	46278	17398
0	66870	46278	17388
0	66876	46278	17378
0	66882	46278	17368
0	66888	46278	17358
0	66894	46278	17348
0	66900	46278	17338
0	66906	46278	17328
0	66912	46278	17318
0	66918	46278	17308
0	66924	46278	17298
0	66930	46278	17288
0	66936	46278	17278
0	66942	46278	17268
0	66948	46278	17258
0	66954	46278	17248
0	66960	46278	17238
0	66966	46278	17228
0	66972	46278	17218
0	66978	46278	17208
0	66984	46278	17198
0	66990	46278	17188
0	66996	46278	17178
0	67002	46278	17168
0	67008	46278	17158
0	67014	46278	17148
0	67020	46278	17138
0	67026	46278	17128
0	67032	46278	17118
0	67038	46278	17108
0	67044	46278	17098
0	67050	46278	17088
0	67056	46278	17078
0	67062	46278	17068
0	67068	46278	17058
0	67074	46278	17048
0	67080	46278	17038
0	67086	46278	17028
0	67092	46278	17018
0	67098	46278	17008
0	67104	46278	16998
0	67110	46278	16988
0	67116	46278	16978
0	67122	46278	16968
0	67128	46278	16958
0	67134	46278	16948
0	67140	46278	16938
0	67146	46278	16928
0	67152	46278	16918
0	67158	46278	16908
0	67164	46278	16898
0	67170	46278	16888
0	67176	46278	16878
0	67182	46278	16868
0	67188	46278	16858
0	67194	46278	16848
0	67200	46278	16838
0	67206	46278	16828
0	67212	46278	16818
0	67218	46278	16808
0	67224	46278	16798
0	67230	46278	16788
0	67236	46278	16778
0	67242	46278	16768
0	67248	46278	16758
0	67254	46278	16748
0	67260	46278	16738
0	67266	46278	16728
0	67272	46278	16718
0	67278	46278	16708
0	67284	46278	16698
0	67290	46278	16688
0	67296	46278	16678
0	67302	46278	16668
0	67308	46278	16658
0	67314	46278	16648
0	67320	46278	16638
0	67326	46278	16628
0	67332	46278	16618
0	67338	46278	16608
0	67344	46278	16598
0	67350	46278	16588
0	67356	46278	16578
0	67362	46278	16568
0	67368	46278	16558
0	67374	46278	16548
0	67380	46278	16538
0	67386	46278	16528
0	67392	46278	16518
0	67398	46278	16508
0	67404	46278	16498
0	67410	46278	16488
0	67416	46278	16478
0	67422	46278	16468
0	67428	46278	16458
0	67434	46278	16448
0	67440	46278	16438
0	67446	46278	16428
0	67452	46278	16418
0	67458	46278	16408
0	67464	46278	16398
0	67470	46278	16388
0	67476	46278	16378
0	67482	46278	16368
0	67488	46278	16358
0	67494	46278	16348
0	67500	46278	16338
0	67506	46278	16328
0	67512	46278	16318
0	67518	46278	16308
0	67524	46278	16298
0	67530	46278	16288
0	67536	46278	16278
0	67542	46278	16268
0	67548	46278	16258
0	67554	46278	16248
0	67560	46278	16238
0	67566	46278	16228
0	67572	46278	16218
0	67578	46278	16208
0	67584	46278	16198
0	67590	46278	16188
0	67596	46278	16178
0	67602	46278	16168
0	67608	46278	16158
0	67614	46278	16148
0	67620	46278	16138
0	67626	46278	16128
0	67632	46278	16118
0	67638	46278	16108
0	67644	46278	16098
0	67650	46278	16088
0	67656	46278	16078
0	67662	46278	16068
0	67668	46278	16058
0	67674	46278	16048
0	67680	46278	16038
0	67686	46278	16028
0	67692	46278	16018
0	67698	46278	16008
0	67704	46278	15998
0	67710	46278	15988
0	67716	46278	15978
0	67722	46278	15968
0	67728	46278	15958
0	67734	46278	15948
0	67740	46278	15938
0	67746	46278	15928
0	67752	46278	15918
0	67758	46278	15908
0	67764	46278	15898
0	67770	46278	15888
0	67776	46278	15878
0	67782	46278	15868
0	67788	46278	15858
0	67794	46278	15848
0	67800	46278	15838
0	67806	46278	15828
0	67812	46278	15818
0	67818	46278	15808
0	67824	46278	15798
0	67830	46278	15788
0	67836	46278	15778
0	67842	46278	15768
0	67848	46278	15758
0	67854	46278	15748
0	67860	46278	15738
0	67866	46278	15728
0	67872	46278	15718
0	67878	46278	15708
0	67884	46278	15698
0	67890	46278	15688
0	67896	46278	15678
0	67902	46278	15668
0	67908	46278	15658
0	67914	46278	15648
0	67920	46278	15638
0	67926	46278	15628
0	67932	46278	15618
0	67938	46278	15608
0	67944	46278	15598
0	67950	46278	15588
0	67956	46278	15578
0	67962	46278	15568
0	67968	46278	15558
0	67974	46278	15548
0	67980	46278	15538
0	67986	46278	15528
0	67992	46278	15518
0	67998	46278	15508
0	68004	46278	15498
0	68010	46278	15488
0	68016	46278	15478
0	68022	46278	15468
0	68028	46278	15458
0	68034	46278	15448
0	68040	46278	15438
0	68046	46278	15428
0	68052	46278	15418
0	68058	46278	15408
0	68064	46278	15398
0	68070	46278	15388
0	68076	46278	15378
0	68082	46278	15368
0	68088	46278	15358
0	68094	46278	15348
0	68100	46278	15338
0	68106	46278	15328
0	68112	46278	15318
0	68118	46278	15308
0	68124	46278	15298
0	68130	46278	15288
0	68136	46278	15278
0	68142	46278	15268
0	68148	46278	15258
0	68154	46278	15248
0	68160	46278	15238
0	68166	46278	15228
0	68172	46278	15218
0	68178	46278	15208
0	68184	46278	15198
0	68190	46278	15188
0	68196	46278	15178
0	68202	46278	15168
0	68208	46278	15158
0	68214	46278	15148
0	68220	46278	15138
0	68226	46278	15128
0	68232	46278	15118
0	68238	46278	15108
0	68244	46278	15098
0	68250	46278	15088
0	68256	46278	15078
0	68262	46278	15068
0	68268	46278	15058
0	68274	46278	15048
0	68280	46278	15038
0	68286	46278	15028
0	68292	46278	15018
0	68298	46278	15008
0	68304	46278	14998
0	68310	46278	14988
0	68316	46278	14978
0	68322	46278	14968
0	68328	46278	14958
0	68334	46278	14948
0	68340	46278	14938
0	68346	46278	14928
0	68352	46278	14918
0	68358	46278	14908
0	68364	46278	14898
0	68370	46278	14888
0	68376	46278	14878
0	68382	46278	14868
0	68388	46278	14858
0	68394	46278	14848
0	68400	46278	14838
0	68406	46278	14828
0	68412	46278	14818
0	68418	46278	14808
0	68424	46278	14798
0	68430	46278	14788
0	68436	46278	14778
0	68442	46278	14768
0	68448	46278	14758
0	68454	46278	14748
0	68460	46278	14738
0	68466	46278	14728
0	68472	46278	14718
0	68478	46278	14708
0	68484	46278	14698
0	68490	46278	14688
0	68496	46278	14678
0	68502	46278	14668
0	68508	46278	14658
0	68514	46278	14648
0	68520	46278	14638
0	68526	46278	14628
0	68532	46278	14618
0	68538	46278	14608
0	68544	46278	14598
0	68550	46278	14588
0	68556	46278	14578
0	68562	46278	14568
0	68568	46278	14558
0	68574	46278	14548
0	68580	46278	14538
0	68586	46278	14528
0	68592	46278	14518
0	68598	46278	14508
0	68604	46278	14498
0	68610	46278	14488
0	68616	46278	14478
0	68622	46278	14468
0	68628	46278	14458
0	68634	46278	14448
0	68640	46278	14438
0	68646	46278	14428
0	68652	46278	14418
0	68658	46278	14408
0	68664	46278	14398
0	68670	46278	14388
0	68676	46278	14378
0	68682	46278	14368
0	68688	46278	14358
0	68694	46278	14348
0	68700	46278	14338
0	68706	46278	14328
0	68712	46278	14318
0	68718	46278	14308
0	68724	46278	14298
0	68730	46278	14288
0	68736	46278	14278
0	68742	46278	14268
0	68748	46278	14258
0	68754	46278	14248
0	68760	46278	14238
0	68766	46278	14228
0	68772	46278	14218
0	68778	46278	14208
0	68784	46278	14198
0	68790	46278	14188
0	68796	46278	14178
0	68802	46278	14168
0	68808	46278	14158
0	68814	46278	14148
0	68820	46278	14138
0	68826	46278	14128
0	68832	46278	14118
0	68838	46278	14108
0	68844	46278	14098
0	68850	46278	14088
0	68856	46278	14078
0	68862	46278	14068
0	68868	46278	14058
0	68874	46278	14048
0	68880	46278	14038
0	68886	46278	14028
0	68892	46278	14018
0	68898	46278	14008
0	68904	46278	13998
0	68910	46278	13988
0	68916	46278	13978
0	68922	46278	13968
0	68928	46278	13958
0	68934	46278	13948
0	68940	46278	13938
0	68946	46278	13928
0	68952	46278	13918
0	68958	46278	13908
0	68964	46278	13898
0	68970	46278	13888
0	68976	46278	13878
0	68982	46278	13868
0	68988	46278	13858
0	68994	46278	13848
0	69000	46278	13838
0	69006	46278	13828
0	69012	46278	13818
0	69018	46278	13808
0	69024	46278	13798
0	69030	46278	13788
0	69036	46278	13778
0	69042	46278	13768
0	69048	46278	13758
0	69054	46278	13748
0	69060	46278	13738
0	69066	46278	13728
0	69072	46278	13718
0	69078	46278	13708
0	69084	46278	13698
0	69090	46278	13688
0	69096	46278	13678
0	69102	46278	13668
0	69108	46278	13658
0	69114	46278	13648
0	69120	46278	13638
0	69126	46278	13628
0	69132	46278	13618
0	69138	46278	13608
0	69144	46278	13598
0	69150	46278	13588
0	69156	46278	13578
0	69162	46278	13568
0	69168	46278	13558
0	69174	46278	13548
0	69180	46278	13538
0	69186	46278	13528
0	69192	46278	13518
0	69198	46278	13508
0	69204	46278	13498
0	69210	46278	13488
0	69216	46278	13478
0	69222	46278	13468
0	69228	46278	13458
0	69234	46278	13448
0	69240	46278	13438
0	69246	46278	13428
0	69252	46278	13418
0	69258	46278	13408
0	69264	46278	13398
0	69270	46278	13388
0	69276	46278	13378
0	69282	46278	13368
0	69288	46278	13358
0	69294	46278	13348
0	69300	46278	13338
0	69306	46278	13328
0	69312	46278	13318
0	69318	46278	13308
0	69324	46278	13298
0	69330	46278	13288
0	69336	46278	13278
0	69342	46278	13268
0	69348	46278	13258
0	69354	46278	13248
0	69360	46278	13238
0	69366	46278	13228
0	69372	46278	13218
0	69378	46278	13208
0	69384	46278	13198
0	69390	46278	13188
0	69396	46278	13178
0	69402	46278	13168
0	69408	46278	13158
0	69414	46278	13148
0	69420	46278	13138
0	69426	46278	13128
0	69432	46278	13118
0	69438	46278	13108
0	69444	46278	13098
0	69450	46278	13088
0	69456	46278	13078
0	69462	46278	13068
0	69468	46278	13058
0	69474	46278	13048
0	69480	46278	13038
0	69486	46278	13028
0	69492	46278	13018
0	69498	46278	13008
0	69504	46278	12998
0	69510	46278	12988
0	69516	46278	12978
0	69522	46278	12968
0	69528	46278	12958
0	69534	46278	12948
0	69540	46278	12938
0	69546	46278	12928
0	69552	46278	12918
0	69558	46278	12908
0	69564	46278	12898
0	69570	46278	12888
0	69576	46278	12878
0	69582	46278	12868
0	69588	46278	12858
0	69594	46278	12848
0	69600	46278	12838
0	69606	46278	12828
0	69612	46278	12818
0	69618	46278	12808
0	69624	46278	12798
0	69630	46278	12788
0	69636	46278	12778
0	69642	46278	12768
0	69648	46278	12758
0	69654	46278	12748
0	69660	46278	12738
0	69666	46278	12728
0	69672	46278	12718
0	69678	46278	12708
0	69684	46278	12698
0	69690	46278	12688
0	69696	46278	12678
0	69702	46278	12668
0	69708	46278	12658
0	69714	46278	12648
0	69720	46278	12638
0	69726	46278	12628
0	69732	46278	12618
0	69738	46278	12608
0	69744	46278	12598
0	69750	46278	12588
0	69756	46278	12578
0	69762	46278	12568
0	69768	46278	12558
0	69774	46278	12548
0	69780	46278	12538
0	69786	46278	12528
0	69792	46278	12518
0	69798	46278	12508
0	69804	46278	12498
0	69810	46278	12488
0	69816	46278	12478
0	69822	46278	12468
0	69828	46278	12458
0	69834	46278	12448
0	69840	46278	12438
0	69846	46278	12428
0	69852	46278	12418
0	69858	46278	12408
0	69864	46278	12398
0	69870	46278	12388
0	69876	46278	12378
0	69882	46278	12368
0	69888	46278	12358
0	69894	46278	12348
0	69900	46278	12338
0	69906	46278	12328
0	69912	46278	12318
0	69918	46278	12308
0	69924	46278	12298
0	69930	46278	12288
0	69936	46278	12278
0	69942	46278	12268
0	69948	46278	12258
0	69954	46278	12248
0	69960	46278	12238
0	69966	46278	12228
0	69972	46278	12218
0	69978	46278	12208
0	69984	46278	12198
0	69990	46278	12188
0	69996	46278	12178
0	70002	46278	12168
0	70008	46278	12158
0	70014	46278	12148
0	70020	46278	12138
0	70026	46278	12128
0	70032	46278	12118
0	70038	46278	12108
0	70044	46278	12098
0	70050	46278	12088
0	70056	46278	12078
0	70062	46278	12068
0	70068	46278	12058
0	70074	46278	12048
0	70080	46278	12038
0	70086	46278	12028
0	70092	46278	12018
0	70098	46278	12008
0	70104	46278	11998
0	70110	46278	11988
0	70116	46278	11978
0	70122	46278	11968
0	70128	46278	11958
0	70134	46278	11948
0	70140	46278	11938
0	70146	46278	11928
0	70152	46278	11918
0	70158	46278	11908
0	70164	46278	11898
0	70170	46278	11888
0	70176	46278	11878
0	70182	46278	11868
0	70188	46278	11858
0	70194	46278	11848
0	70200	46278	11838
0	70206	46278	11828
0	70212	46278	11818
0	70218	46278	11808
0	70224	46278	11798
0	70230	46278	11788
0	70236	46278	11778
0	70242	46278	11768
0	70248	46278	11758
0	70254	46278	11748
0	70260	46278	11738
0	70266	46278	11728
0	70272	46278	11718
0	70278	46278	11708
0	70284	46278	11698
0	70290	46278	11688
0	70296	46278	11678
0	70302	46278	11668
0	70308	46278	11658
0	70314	46278	11648
0	70320	46278	11638
0	70326	46278	11628
0	70332	46278	11618
0	70338	46278	11608
0	70344	46278	11598
0	70350	46278	11588
0	70356	46278	11578
0	70362	46278	11568
0	70368	46278	11558
0	70374	46278	11548
0	70380	46278	11538
0	70386	46278	11528
0	70392	46278	11518
0	70398	46278	11508
0	70404	46278	11498
0	70410	46278	11488
0	70416	46278	11478
0	70422	46278	11468
0	70428	46278	11458
0	70434	46278	11448
0	70440	46278	11438
0	70446	46278	11428
0	70452	46278	11418
0	70458	46278	11408
0	70464	46278	11398
0	70470	46278	11388
0	70476	46278	11378
0	70482	46278	11368
0	70488	46278	11358
0	70494	46278	11348
0	70500	46278	11338
0	70506	46278	11328
0	70512	46278	11318
0	70518	46278	11308
0	70524	46278	11298
0	70530	46278	11288
0	70536	46278	11278
0	70542	46278	11268
0	70548	46278	11258
0	70554	46278	11248
0	70560	46278	11238
0	70566	46278	11228
0	70572	46278	11218
0	70578	46278	11208
0	70584	46278	11198
0	70590	46278	11188
0	70596	46278	11178
0	70602	46278	11168
0	70608	46278	11158
0	70614	46278	11148
0	70620	46278	11138
0	70626	46278	11128
0	70632	46278	11118
0	70638	46278	11108
0	70644	46278	11098
0	70650	46278	11088
0	70656	46278	11078
0	70662	46278	11068
0	70668	46278	11058
0	70674	46278	11048
0	70680	46278	11038
0	70686	46278	11028
0	70692	46278	11018
0	70698	46278	11008
0	70704	46278	10998
0	70710	46278	10988
0	70716	46278	10978
0	70722	46278	10968
0	70728	46278	10958
0	70734	46278	10948
0	70740	46278	10938
0	70746	46278	10928
0	70752	46278	10918
0	70758	46278	10908
0	70764	46278	10898
0	70770	46278	10888
0	70776	46278	10878
0	70782	46278	10868
0	70788	46278	10858
0	70794	46278	10848
0	70800	46278	10838
0	70806	46278	10828
0	70812	46278	10818
0	70818	46278	10808
0	70824	46278	10798
0	70830	46278	10788
0	70836	46278	10778
0	70842	46278	10768
0	70848	46278	10758
0	70854	46278	10748
0	70860	46278	10738
0	70866	46278	10728
0	70872	46278	10718
0	70878	46278	10708
0	70884	46278	10698
0	70890	46278	10688
0	70896	46278	10678
0	70902	46278	10668
0	70908	46278	10658
0	70914	46278	10648
0	70920	46278	10638
0	70926	46278	10628
0	70932	46278	10618
0	70938	46278	10608
0	70944	46278	10598
0	70950	46278	10588
0	70956	46278	10578
0	70962	46278	10568
0	70968	46278	10558
0	70974	46278	10548
0	70980	46278	10538
0	70986	46278	10528
0	70992	46278	10518
0	70998	46278	10508
0	71004	46278	10498
0	71010	46278	10488
0	71016	46278	10478
0	71022	46278	10468
0	71028	46278	10458
0	71034	46278	10448
0	71040	46278	10438
0	71046	46278	10428
0	71052	46278	10418
0	71058	46278	10408
0	71064	46278	10398
0	71070	46278	10388
0	71076	46278	10378
0	71082	46278	10368
0	71088	46278	10358
0	71094	46278	10348
0	71100	46278	10338
0	71106	46278	10328
0	71112	46278	10318
0	71118	46278	10308
0	71124	46278	10298
0	71130	46278	10288
0	71136	46278	10278
0	71142	46278	10268
0	71148	46278	10258
0	71154	46278	10248
0	71160	46278	10238
0	71166	46278	10228
0	71172	46278	10218
0	71178	46278	10208
0	71184	46278	10198
0	71190	46278	10188
0	71196	46278	10178
0	71202	46278	10168
0	71208	46278	10158
0	71214	46278	10148
0	71220	46278	10138
0	71226	46278	10128
0	71232	46278	10118
0	71238	46278	10108
0	71244	46278	10098
0	71250	46278	10088
0	71256	46278	10078
0	71262	46278	10068
0	71268	46278	10058
0	71274	46278	10048
0	71280	46278	10038
0	71286	46278	10028
0	71292	46278	10018
0	71298	46278	10008
0	71304	46278	9998
0	71310	46278	9988
0	71316	46278	9978
0	71322	46278	9968
0	71328	46278	9958
0	71334	46278	9948
0	71340	46278	9938
0	71346	46278	9928
0	71352	46278	9918
0	71358	46278	9908
0	71364	46278	9898
0	71370	46278	9888
0	71376	46278	9878
0	71382	46278	9868
0	71388	46278	9858
0	71394	46278	9848
0	71400	46278	9838
0	71406	46278	9828
0	71412	46278	9818
0	71418	46278	9808
0	71424	46278	9798
0	71430	46278	9788
0	71436	46278	9778
0	71442	46278	9768
0	71448	46278	9758
0	71454	46278	9748
0	71460	46278	9738
0	71466	46278	9728
0	71472	46278	9718
0	71478	46278	9708
0	71484	46278	9698
0	71490	46278	9688
0	71496	46278	9678
0	71502	46278	9668
0	71508	46278	9658
0	71514	46278	9648
0	71520	46278	9638
0	71526	46278	9628
0	71532	46278	9618
0	71538	46278	9608
0	71544	46278	9598
0	71550	46278	9588
0	71556	46278	9578
0	71562	46278	9568
0	71568	46278	9558
0	71574	46278	9548
0	71580	46278	9538
0	71586	46278	9528
0	71592	46278	9518
0	71598	46278	9508
0	71604	46278	9498
0	71610	46278	9488
0	71616	46278	9478
0	71622	46278	9468
0	71628	46278	9458
0	71634	46278	9448
0	71640	46278	9438
0	71646	46278	9428
0	71652	46278	9418
0	71658	46278	9408
0	71664	46278	9398
0	71670	46278	9388
0	71676	46278	9378
0	71682	46278	9368
0	71688	46278	9358
0	71694	46278	9348
0	71700	46278	9338
0	71706	46278	9328
0	71712	46278	9318
0	71718	46278	9308
0	71724	46278	9298
0	71730	46278	9288
0	71736	46278	9278
0	71742	46278	9268
0	71748	46278	9258
0	71754	46278	9248
0	71760	46278	9238
0	71766	46278	9228
0	71772	46278	9218
0	71778	46278	9208
0	71784	46278	9198
0	71790	46278	9188
0	71796	46278	9178
0	71802	46278	9168
0	71808	46278	9158
0	71814	46278	9148
0	71820	46278	9138
0	71826	46278	9128
0	71832	46278	9118
0	71838	46278	9108
0	71844	46278	9098
0	71850	46278	9088
0	71856	46278	9078
0	71862	46278	9068
0	71868	46278	9058
0	71874	46278	9048
0	71880	46278	9038
0	71886	46278	9028
0	71892	46278	9018
0	71898	46278	9008
0	71904	46278	8998
0	71910	46278	8988
0	71916	46278	8978
0	71922	46278	8968
0	71928	46278	8958
0	71934	46278	8948
0	71940	46278	8938
0	71946	46278	8928
0	71952	46278	8918
0	71958	46278	8908
0	71964	46278	8898
0	71970	46278	8888
0	71976	46278	8878
0	71982	46278	8868
0	71988	46278	8858
0	71994	46278	8848
0	72000	46278	8838
0	72006	46278	8828
0	72012	46278	8818
0	72018	46278	8808
0	72024	46278	8798
0	72030	46278	8788
0	72036	46278	8778
0	72042	46278	8768
0	72048	46278	8758
0	72054	46278	8748
0	72060	46278	8738
0	72066	46278	8728
0	72072	46278	8718
0	72078	46278	8708
0	72084	46278	8698
0	72090	46278	8688
0	72096	46278	8678
0	72102	46278	8668
0	72108	46278	8658
0	72114	46278	8648
0	72120	46278	8638
0	72126	46278	8628
0	72132	46278	8618
0	72138	46278	8608
0	72144	46278	8598
0	72150	46278	8588
0	72156	46278	8578
0	72162	46278	8568
0	72168	46278	8558
0	72174	46278	8548
0	72180	46278	8538
0	72186	46278	8528
0	72192	46278	8518
0	72198	46278	8508
0	72204	46278	8498
0	72210	46278	8488
0	72216	46278	8478
0	72222	46278	8468
0	72228	46278	8458
0	72234	46278	8448
0	72240	46278	8438
0	72246	46278	8428
0	81950	47487	9627
0	81956	47487	9617
0	81962	47487	9607
0	81968	47487	9597
0	81974	47487	9587
0	81980	47487	9577
0	81986	47487	9567
0	81992	47487	9557
0	81998	47487	9547
0	82004	47487	9537
0	82010	47487	9527
0	82016	47487	9517
0	82022	47487	9507
0	82028	47487	9497
0	82034	47487	9487
0	82040	47487	9477
0	82046	47487	9467
0	82052	47487	9457
0	82058	47487	9447
0	82064	47487	9437
0	82070	47487	9427
0	82076	47487	9417
0	82082	47487	9407
0	82088	47487	9397
0	82094	47487	9387
0	82100	47487	9377
0	82106	47487	9367
0	82112	47487	9357
0	82118	47487	9347
0	82124	47487	9337
0	82130	47487	9327
0	82136	47487	9317
0	82142	47487	9307
0	82148	47487	9297
0	82154	47487	9287
0	82160	47487	9277
0	82166	47487	9267
0	82172	47487	9257
0	82178	47487	9247
0	82184	47487	9237
0	82190	47487	9227
0	82196	47487	9217
0	82202	47487	9207
0	82208	47487	9197
0	82214	47487	9187
0	82220	47487	9177
0	82226	47487	9167
0	82232	47487	9157
0	82238	47487	9147
0	82244	47487	9137
0	82250	47487	9127
0	82256	47487	9117
0	82262	47487	9107
0	82268	47487	9097
0	82274	47487	9087
0	82280	47487	9077
0	82286	47487	9067
0	82292	47487	9057
0	82298	47487	9047
0	82304	47487	9037
0	82310	47487	9027
0	82316	47487	9017
0	82322	47487	9007
0	82328	47487	8997
0	82334	47487	8987
0	82340	47487	8977
0	82346	47487	8967
0	82352	47487	8957
0	82358	47487	8947
0	82364	47487	8937
0	82370	47487	8927
0	82376	47487	8917
0	82382	47487	8907
0	82388	47487	8897
0	82394	47487	8887
0	82400	47487	8877
0	82406	47487	8867
0	82412	47487	8857
0	82418	47487	8847
0	82424	47487	8837
0	82430	47487	8827
0	82436	47487	8817
0	82442	47487	8807
0	82448	47487	8797
0	82454	47487	8787
0	82460	47487	8777
0	82466	47487	8767
0	82472	47487	8757
0	82478	47487	8747
0	82484	47487	8737
0	82490	47487	8727
0	82496	47487	8717
0	82502	47487	8707
0	82508	47487	8697
0	82514	47487	8687
0	82520	47487	8677
0	82526	47487	8667
0	82532	47487	8657
0	82538	47487	8647
0	82544	47487	8637
0	82550	47487	8627
0	82556	47487	8617
0	82562	47487	8607
0	82568	47487	8597
0	82574	47487	8587
0	82580	47487	8577
0	82586	47487	8567
0	82592	47487	8557
0	82598	47487	8547
0	82604	47487	8537
0	82610	47487	8527
0	82616	47487	8517
0	82622	47487	8507
0	82628	47487	8497
0	82634	47487	8487
0	82640	47487	8477
0	82646	47487	8467
0	82652	47487	8457
0	82658	47487	8447
0	82664	47487	8437
0	82670	47487	8427
0	82676	47487	8417
0	82682	47487	8407
0	82688	47487	8397
0	82694	47487	8387
0	82700	47487	8377
[...]
0	129972	67515	3285
0	129978	67515	3275
0	129984	67515	3265
0	129990	67515	3255
0	129996	67515	3245
0	130002	67515	3235
0	130008	67515	3225
0	130014	67515	3215
0	130020	67515	3205
0	130026	67515	3195
0	130032	67515	3185
0	130038	67515	3175
0	130044	67515	3165
0	130050	67515	3155
0	130056	67515	3145
0	130062	67515	3135
0	130068	67515	3125
0	130074	67515	3115
0	130080	67515	3105
0	130086	67515	3095
0	130092	67515	3085
0	130098	67515	3075
0	130104	67515	3065
0	130110	67515	3055
0	130116	67515	3045
0	130122	67515	3035
0	130128	67515	3025
0	130134	67515	3015
0	130140	67515	3005
0	130146	67515	2995
0	130152	67515	2985
0	130158	67515	2975
0	130164	67515	2965
0	130170	67515	2955
0	130176	67515	2945
0	130182	67515	2935
0	130188	67515	2925
0	130194	67515	2915
0	130200	67515	2905
0	130206	67515	2895
0	130212	67515	2885
0	130218	67515	2875
0	130224	67515	2865
0	130230	67515	2855
0	130236	67515	2845
0	130242	67515	2835
0	130248	67515	2825
0	130254	67515	2815
0	130260	67515	2805
0	130266	67515	2795
0	130272	67515	2785
0	130278	67515	2775
0	130284	67515	2765
0	130290	67515	2755
0	130296	67515	2745
0	130302	67515	2735
0	130308	67515	2725
0	130314	67515	2715
0	130320	67515	2705
0	130326	67515	2695
0	130332	67515	2685
0	130338	67515	2675
0	130344	67515	2665
0	130350	67515	2655
0	130356	67515	2645
0	130362	67515	2635
0	130368	67515	2625
0	130374	67515	2615
0	130380	67515	2605
0	130386	67515	2595
0	130392	67515	2585
0	130398	67515	2575
0	130404	67515	2565
0	130410	67515	2555
0	130416	67515	2545
0	130422	67515	2535
0	130428	67515	2525
0	130434	67515	2515
0	130440	67515	2505
0	130446	67515	2495
0	130452	67515	2485
0	130458	67515	2475
0	130464	67515	2465
0	130470	67515	2455
0	130476	67515	2445
0	130482	67515	2435
0	130488	67515	2425
0	130494	67515	2415
0	130500	67515	2405
0	130506	67515	2395
0	130512	67515	2385
0	130518	67515	2375
0	130524	67515	2365
0	130530	67515	2355
0	130536	67515	2345
0	130542	67515	2335
0	130548	67515	2325
0	130554	67515	2315
0	130560	67515	2305
0	130566	67515	2295
0	130572	67515	2285
0	130578	67515	2275
0	130584	67515	2265
0	130590	67515	2255
0	130596	67515	2245
0	130602	67515	2235
0	130608	67515	2225
0	130614	67515	2215
0	130620	67515	2205
0	130626	67515	2195
0	130632	67515	2185
0	130638	67515	2175
0	130644	67515	2165
0	130650	67515	2155
0	130656	67515	2145
0	130662	67515	2135
0	130668	67515	2125
0	130674	67515	2115
0	130680	67515	2105
0	130686	67515	2095
0	130692	67515	2085
0	130698	67515	2075
0	130704	67515	2065
0	130710	67515	2055
0	130716	67515	2045
0	130722	67515	2035
0	130728	67515	2025
0	130734	67515	2015
0	130740	67515	2005
0	130746	67515	1995
0	130752	67515	1985
0	130758	67515	1975
0	130764	67515	1965
0	130770	67515	1955
0	130776	67515	1945
0	130782	67515	1935
0	130788	67515	1925
0	130794	67515	1915
0	130800	67515	1905
0	130806	67515	1895
0	130812	67515	1885
0	130818	67515	1875
0	130824	67515	1865
0	130830	67515	1855
0	130836	67515	1845
0	130842	67515	1835
0	130848	67515	1825
0	130854	67515	1815
0	130860	67515	1805
0	130866	67515	1795
0	130872	67515	1785
0	130878	67515	1775
0	130884	67515	1765
0	130890	67515	1755
0	130896	67515	1745
0	130902	67515	1735
0	130908	67515	1725
0	130914	67515	1715
0	130920	67515	1705
0	130926	67515	1695
0	130932	67515	1685
0	130938	67515	1675
0	130944	67515	1665
0	130950	67515	1655
0	130956	67515	1645
0	130962	67515	1635
0	130968	67515	1625
0	130974	67515	1615
0	130980	67515	1605
0	130986	67515	1595
0	130992	67515	1585
0	130998	67515	1575
0	131004	67515	1565
0	131010	67515	1555
0	131016	67515	1545
0	131022	67515	1535
0	131028	67515	1525
0	131034	67515	1515
0	131040	67515	1505
0	131046	67515	1495
0	131052	67515	1485
0	131058	67515	1475
0	131064	67515	1465
0	131070	67515	1455
0	131076	67515	1445
0	131082	67515	1435
0	131088	67515	1425
0	131094	67515	1415
0	131100	67515	1405
0	131106	67515	1395
0	131112	67515	1385
0	131118	67515	1375
0	131124	67515	1365
0	131130	67515	1355
0	131136	67515	1345
0	131142	67515	1335
0	131148	67515	1325
0	131154	67515	1315
0	131160	67515	1305
0	131166	67515	1295
0	131172	67515	1285
0	131178	67515	1275
0	131184	67515	1265
0	131190	67515	1255
0	131196	67515	1245
0	131202	67515	1235
0	131208	67515	1225
0	131214	67515	1215
0	131220	67515	1205
0	131226	67515	1195
0	131251	67522	1192
0	131280	67532	1192
0	131307	67542	1192
0	131338	67552	1192
0	131370	67562	1192
0	131401	67572	1192
0	131430	67582	1192
0	131463	67592	1192
0	131494	67602	1192
0	131530	67612	1192
0	131562	67622	1192
0	131594	67632	1192
0	131626	67642	1192
0	131663	67652	1192
0	131697	67662	1192
0	131731	67672	1192
0	131765	67682	1192
0	131799	67692	1192
0	131833	67702	1192
0	131867	67712	1192
0	131901	67722	1192
0	131942	67732	1192
0	131982	67742	1192
0	132020	67752	1192
0	132059	67762	1192
0	132096	67772	1192
0	132133	67782	1192
0	132170	67792	1192
0	132211	67802	1192
0	132248	67812	1192
0	132285	67822	1192
0	132329	67832	1192
0	132370	67842	1192
0	132411	67852	1192
0	132456	67862	1192
0	132498	67872	1192
0	132540	67882	1192
0	132582	67892	1192
0	132624	67902	1192
0	132666	67912	1192
0	132711	67922	1192
0	132758	67932	1192
0	132806	67942	1192
0	132852	67952	1192
0	132898	67962	1192
0	132944	67972	1192
0	132992	67982	1192
0	133044	67992	1192
0	133092	68002	1192
0	133140	68012	1192
0	133188	68022	1192
0	133236	68032	1192
0	133287	68042	1192
0	133336	68052	1192
0	133388	68062	1192
0	133438	68072	1192
0	133488	68082	1192
0	133538	68092	1192
0	133591	68102	1192
0	133644	68112	1192
0	133695	68122	1192
0	133746	68132	1192
0	133799	68142	1192
0	133850	68152	1192
0	133901	68162	1192
0	133952	68172	1192
0	134003	68182	1192
0	134054	68192	1192
0	134105	68202	1192
0	134156	68212	1192
0	134207	68222	1192
0	134258	68232	1192
0	134310	68242	1192
0	134361	68252	1192
0	134414	68262	1192
0	134468	68272	1192
0	134523	68282	1192
0	134579	68292	1192
0	134637	68302	1192
0	140111	69502	2382
0	140140	69502	2372
0	140146	69502	2362
0	140152	69502	2352
0	140158	69502	2342
0	140164	69502	2332
0	140170	69502	2322
0	140176	69502	2312
0	140182	69502	2302
0	140188	69502	2292
0	140194	69502	2282
0	140200	69502	2272
0	140206	69502	2262
0	140212	69502	2252
0	140218	69502	2242
0	140224	69502	2232
0	140230	69502	2222
0	140236	69502	2212
0	140242	69502	2202
0	140248	69502	2192
0	140254	69502	2182
0	140260	69502	2172
0	140266	69502	2162
0	140272	69502	2152
0	140278	69502	2142
0	140284	69502	2132
0	140290	69502	2122
0	140296	69502	2112
0	140302	69502	2102
0	140308	69502	2092
0	140314	69502	2082
0	140320	69502	2072
0	140326	69502	2062
0	140332	69502	2052
0	140338	69502	2042
0	140344	69502	2032
0	140350	69502	2022
0	140356	69502	2012
0	140362	69502	2002
0	140368	69502	1992
0	140374	69502	1982
0	140380	69502	1972
0	140386	69502	1962
0	140392	69502	1952
0	140398	69502	1942
0	140404	69502	1932
0	140410	69502	1922
0	140416	69502	1912
0	140422	69502	1902
0	140428	69502	1892
0	140434	69502	1882
0	140440	69502	1872
0	140446	69502	1862
0	140452	69502	1852
0	140458	69502	1842
0	140464	69502	1832
0	140470	69502	1822
0	140476	69502	1812
0	140482	69502	1802
0	140488	69502	1792
0	140494	69502	1782
0	140500	69502	1772
0	140506	69502	1762
0	140512	69502	1752
0	140518	69502	1742
0	140524	69502	1732
0	140530	69502	1722
0	140536	69502	1712
0	140542	69502	1702
0	140548	69502	1692
0	140554	69502	1682
0	140560	69502	1672
0	140566	69502	1662
0	140572	69502	1652
0	140578	69502	1642
0	140584	69502	1632
0	140590	69502	1622
0	140596	69502	1612
0	140602	69502	1602
0	140608	69502	1592
0	140614	69502	1582
0	140620	69502	1572
0	140626	69502	1562
0	140632	69502	1552
0	140638	69502	1542
0	140644	69502	1532
0	140650	69502	1522
0	140656	69502	1512
0	140662	69502	1502
0	140668	69502	1492
0	140674	69502	1482
0	140680	69502	1472
0	140686	69502	1462
0	140692	69502	1452
0	140698	69502	1442
0	140704	69502	1432
0	140710	69502	1422
0	140716	69502	1412
0	140722	69502	1402
0	140728	69502	1392
0	140734	69502	1382
0	140740	69502	1372
0	140746	69502	1362
0	140752	69502	1352
0	140758	69502	1342
0	140764	69502	1332
0	140770	69502	1322
0	140776	69502	1312
0	140782	69502	1302
0	140788	69502	1292
0	140794	69502	1282
0	140800	69502	1272
0	140806	69502	1262
0	140812	69502	1252
0	140818	69502	1242
0	140824	69502	1232
0	140830	69502	1222
0	140836	69502	1212
0	140842	69502	1202
0	140848	69502	1192
0	140902	69512	1192
0	140979	69522	1192
0	141058	69532	1192
0	141136	69542	1192
0	141217	69552	1192
0	141296	69562	1192
0	141377	69572	1192
0	141461	69582	1192
0	141544	69592	1192
0	141627	69602	1192
0	141709	69612	1192
0	141794	69622	1192
0	141877	69632	1192
0	141960	69642	1192
0	142043	69652	1192
0	142126	69662	1192
0	142211	69672	1192
0	142296	69682	1192
0	142379	69692	1192
0	142464	69702	1192
0	142548	69712	1192
0	142632	69722	1192
0	142719	69732	1192
0	142804	69742	1192
0	142891	69752	1192
0	142976	69762	1192
0	143061	69772	1192
0	143146	69782	1192
0	143231	69792	1192
0	143315	69802	1192
0	143399	69812	1192
0	143484	69822	1192
0	143568	69832	1192
0	143652	69842	1192
0	143736	69852	1192
0	143820	69862	1192
0	143910	69872	1192
0	143994	69882	1192
0	144078	69892	1192
0	144165	69902	1192
0	144250	69912	1192
0	144340	69922	1192
0	144427	69932	1192
0	144515	69942	1192
0	144601	69952	1192
0	144687	69962	1192
0	144773	69972	1192
0	144859	69982	1192
0	144947	69992	1192
0	145035	70002	1192
0	145123	70012	1192
0	145209	70022	1192
0	145295	70032	1192
0	145381	70042	1192
0	145467	70052	1192
0	145553	70062	1192
0	145639	70072	1192
0	145725	70082	1192
0	145811	70092	1192
0	145897	70102	1192
0	145987	70112	1192
0	146075	70122	1192
0	146163	70132	1192
0	146255	70142	1192
0	146343	70152	1192
0	146431	70162	1192
0	146521	70172	1192
0	146612	70182	1192
0	146702	70192	1192
0	146794	70202	1192
0	146884	70212	1192
0	146974	70222	1192
0	147064	70232	1192
0	147156	70242	1192
0	147247	70252	1192
0	147338	70262	1192
0	147431	70272	1192
0	147524	70282	1192
0	147615	70292	1192
0	147706	70302	1192
0	147797	70312	1192
0	147888	70322	1192
0	147981	70332	1192
0	148075	70342	1192
0	148169	70352	1192
0	148261	70362	1192
0	148353	70372	1192
0	148445	70382	1192
0	148537	70392	1192
0	148629	70402	1192
0	148723	70412	1192
0	148823	70422	1192
0	148915	70432	1192
0	149007	70442	1192
0	149101	70452	1192
0	149196	70462	1192
0	149289	70472	1192
0	149384	70482	1192
0	149477	70492	1192
0	149570	70502	1192
0	149662	70512	1192
0	149756	70522	1192
0	149851	70532	1192
0	149944	70542	1192
0	150039	70552	1192
0	150132	70562	1192
0	150225	70572	1192
0	150318	70582	1192
0	150413	70592	1192
0	150506	70602	1192
0	150601	70612	1192
0	150695	70622	1192
0	150793	70632	1192
0	158691	71842	2392
0	158720	71842	2382
0	158726	71842	2372
0	158732	71842	2362
0	158738	71842	2352
0	158744	71842	2342
0	158750	71842	2332
0	158756	71842	2322
0	158762	71842	2312
0	158768	71842	2302
0	158774	71842	2292
0	158780	71842	2282
0	158786	71842	2272
0	158792	71842	2262
0	158798	71842	2252
0	158804	71842	2242
0	158810	71842	2232
0	158816	71842	2222
0	158822	71842	2212
0	158828	71842	2202
0	158834	71842	2192
0	158840	71842	2182
0	158846	71842	2172
0	158852	71842	2162
0	158858	71842	2152
0	158864	71842	2142
0	158870	71842	2132
0	158876	71842	2122
0	158882	71842	2112
0	158888	71842	2102
0	158894	71842	2092
0	158900	71842	2082
0	158906	71842	2072
0	158912	71842	2062
0	158918	71842	2052
0	158924	71842	2042
0	158930	71842	2032
0	158936	71842	2022
0	158942	71842	2012
0	158948	71842	2002
0	158954	71842	1992
0	158960	71842	1982
0	158966	71842	1972
0	158972	71842	1962
0	158978	71842	1952
0	158984	71842	1942
0	158990	71842	1932
0	158996	71842	1922
0	159002	71842	1912
0	159008	71842	1902
0	159014	71842	1892
0	159020	71842	1882
0	159026	71842	1872
0	159032	71842	1862
0	159038	71842	1852
0	159044	71842	1842
0	159050	71842	1832
0	159056	71842	1822
0	159062	71842	1812
0	159068	71842	1802
0	159074	71842	1792
0	159080	71842	1782
0	159086	71842	1772
0	159092	71842	1762
0	159098	71842	1752
0	159104	71842	1742
0	159110	71842	1732
0	159116	71842	1722
0	159122	71842	1712
0	159128	71842	1702
0	159134	71842	1692
0	159140	71842	1682
0	159146	71842	1672
0	159152	71842	1662
0	159158	71842	1652
0	159164	71842	1642
0	159170	71842	1632
0	159176	71842	1622
0	159182	71842	1612
0	159188	71842	1602
0	159194	71842	1592
0	159200	71842	1582
0	159206	71842	1572
0	159212	71842	1562
0	159218	71842	1552
0	159224	71842	1542
0	159230	71842	1532
0	159236	71842	1522
0	159242	71842	1512
0	159248	71842	1502
0	159254	71842	1492
0	159260	71842	1482
0	159266	71842	1472
0	159272	71842	1462
0	159278	71842	1452
0	159284	71842	1442
0	159290	71842	1432
0	159296	71842	1422
0	159302	71842	1412
0	159308	71842	1402
0	159314	71842	1392
0	159320	71842	1382
0	159326	71842	1372
0	159332	71842	1362
0	159338	71842	1352
0	159344	71842	1342
0	159350	71842	1332
0	159356	71842	1322
0	159362	71842	1312
0	159368	71842	1302
0	159374	71842	1292
0	159380	71842	1282
0	159386	71842	1272
0	159392	71842	1262
0	159398	71842	1252
0	159404	71842	1242
0	159410	71842	1232
0	159416	71842	1222
0	159422	71842	1212
0	159428	71842	1202
0	159434	71842	1192
0	159509	71852	1192
0	159605	71862	1192
0	159703	71872	1192
0	159804	71882	1192
0	159902	71892	1192
0	160001	71902	1192
0	160100	71912	1192
0	160199	71922	1192
0	160298	71932	1192
0	160396	71942	1192
0	160494	71952	1192
0	160595	71962	1192
0	160693	71972	1192
0	160793	71982	1192
0	160890	71992	1192
0	160986	72002	1192
0	177466	74682	3862
0	177489	74682	3852
0	177495	74682	3842
0	177501	74682	3832
0	177507	74682	3822
0	177513	74682	3812
0	177519	74682	3802
0	177525	74682	3792
0	177531	74682	3782
0	177537	74682	3772
0	177543	74682	3762
0	177549	74682	3752
0	177555	74682	3742
0	177561	74682	3732
0	177567	74682	3722
0	177573	74682	3712
0	177579	74682	3702
0	177585	74682	3692
0	177591	74682	3682
0	177597	74682	3672
0	177603	74682	3662
0	177609	74682	3652
0	177615	74682	3642
0	177621	74682	3632
0	177627	74682	3622
0	177633	74682	3612
0	177639	74682	3602
0	177645	74682	3592
0	177651	74682	3582
0	177657	74682	3572
0	177663	74682	3562
0	177669	74682	3552
0	177675	74682	3542
0	177681	74682	3532
0	177687	74682	3522
0	177693	74682	3512
0	177699	74682	3502
0	177705	74682	3492
0	177711	74682	3482
0	177717	74682	3472
0	177723	74682	3462
0	177729	74682	3452
0	177735	74682	3442
0	177741	74682	3432
0	177747	74682	3422
0	177753	74682	3412
0	177759	74682	3402
0	177765	74682	3392
0	177771	74682	3382
0	177777	74682	3372
0	177783	74682	3362
0	177789	74682	3352
0	177795	74682	3342
0	177801	74682	3332
0	177807	74682	3322
0	177813	74682	3312
0	177819	74682	3302
0	177825	74682	3292
0	177831	74682	3282
0	177837	74682	3272
0	177843	74682	3262
0	177849	74682	3252
0	177855	74682	3242
0	177861	74682	3232
0	177867	74682	3222
0	177873	74682	3212
0	177879	74682	3202
0	177885	74682	3192
0	177891	74682	3182
0	177897	74682	3172
0	177903	74682	3162
0	177909	74682	3152
0	177915	74682	3142
0	177921	74682	3132
0	177927	74682	3122
0	177933	74682	3112
0	177939	74682	3102
0	177945	74682	3092
0	177951	74682	3082
0	177957	74682	3072
0	177963	74682	3062
0	177969	74682	3052
0	177975	74682	3042
0	177981	74682	3032
0	177987	74682	3022
0	177993	74682	3012
0	177999	74682	3002
0	178005	74682	2992
0	178011	74682	2982
0	178017	74682	2972
0	178023	74682	2962
0	178029	74682	2952
0	178035	74682	2942
0	178041	74682	2932
0	178047	74682	2922
0	178053	74682	2912
0	178059	74682	2902
0	178065	74682	2892
0	178071	74682	2882
0	178077	74682	2872
0	178083	74682	2862
0	178089	74682	2852
0	178095	74682	2842
0	178101	74682	2832
0	178107	74682	2822
0	178113	74682	2812
0	178119	74682	2802
0	178125	74682	2792
0	178131	74682	2782
0	178137	74682	2772
0	178143	74682	2762
0	178149	74682	2752
0	178155	74682	2742
0	178161	74682	2732
0	178167	74682	2722
0	178173	74682	2712
0	178179	74682	2702
0	178185	74682	2692
0	178191	74682	2682
0	178197	74682	2672
0	178203	74682	2662
0	178209	74682	2652
0	178215	74682	2642
0	178221	74682	2632
0	178227	74682	2622
0	178233	74682	2612
0	178239	74682	2602
0	178245	74682	2592
0	178251	74682	2582
0	178257	74682	2572
0	178263	74682	2562
0	178269	74682	2552
0	178275	74682	2542
0	178281	74682	2532
0	178287	74682	2522
0	178293	74682	2512
0	178299	74682	2502
0	178305	74682	2492
0	178311	74682	2482
0	178317	74682	2472
0	178323	74682	2462
0	178329	74682	2452
0	178335	74682	2442
0	178341	74682	2432
0	178347	74682	2422
0	178353	74682	2412
0	178359	74682	2402
0	178365	74682	2392
0	178371	74682	2382
0	178377	74682	2372
0	178383	74682	2362
0	178389	74682	2352
0	178395	74682	2342
0	178401	74682	2332
0	178407	74682	2322
0	178413	74682	2312
0	178419	74682	2302
0	178425	74682	2292
0	178431	74682	2282
0	178437	74682	2272
0	178443	74682	2262
0	178449	74682	2252
0	178455	74682	2242
0	178461	74682	2232
0	178467	74682	2222
0	178473	74682	2212
0	178479	74682	2202
0	178485	74682	2192
0	178491	74682	2182
0	178497	74682	2172
0	178503	74682	2162
0	178509	74682	2152
0	178515	74682	2142
0	178521	74682	2132
0	178527	74682	2122
0	178533	74682	2112
0	178539	74682	2102
0	178545	74682	2092
0	178551	74682	2082
0	178557	74682	2072
0	178563	74682	2062
0	178569	74682	2052
0	178575	74682	2042
0	178581	74682	2032
0	178587	74682	2022
0	178593	74682	2012
0	178599	74682	2002
0	178605	74682	1992
0	178611	74682	1982
0	178617	74682	1972
0	178623	74682	1962
0	178629	74682	1952
0	178635	74682	1942
0	178641	74682	1932
0	178647	74682	1922
0	178653	74682	1912
0	178659	74682	1902
0	178665	74682	1892
0	178671	74682	1882
0	178677	74682	1872
0	178683	74682	1862
0	178689	74682	1852
0	178695	74682	1842
0	178701	74682	1832
0	178707	74682	1822
0	178713	74682	1812
0	178719	74682	1802
0	178725	74682	1792
0	178731	74682	1782
0	178737	74682	1772
0	178743	74682	1762
0	178749	74682	1752
0	178755	74682	1742
0	178761	74682	1732
0	178767	74682	1722
0	178773	74682	1712
0	178779	74682	1702
0	178785	74682	1692
0	178791	74682	1682
0	178797	74682	1672
0	178803	74682	1662
0	178809	74682	1652
0	178815	74682	1642
0	178821	74682	1632
0	178827	74682	1622
0	178833	74682	1612
0	178839	74682	1602
0	178845	74682	1592
0	178851	74682	1582
0	178857	74682	1572
0	178863	74682	1562
0	178869	74682	1552
0	178875	74682	1542
0	178881	74682	1532
0	178887	74682	1522
0	178893	74682	1512
0	178899	74682	1502
0	178905	74682	1492
0	178911	74682	1482
0	178917	74682	1472
0	178923	74682	1462
0	178929	74682	1452
0	178935	74682	1442
0	178941	74682	1432
0	178947	74682	1422
0	178953	74682	1412
0	178959	74682	1402
0	178965	74682	1392
0	178971	74682	1382
0	178977	74682	1372
0	178983	74682	1362
0	178989	74682	1352
0	178995	74682	1342
0	179001	74682	1332
0	179007	74682	1322
0	179013	74682	1312
0	179019	74682	1302
0	179025	74682	1292
0	179031	74682	1282
0	179037	74682	1272
0	179043	74682	1262
0	179049	74682	1252
0	179055	74682	1242
0	179061	74682	1232
0	179067	74682	1222
0	179073	74682	1212
0	179079	74682	1202
0	179085	74682	1192
0	179140	74692	1192
0	179211	74702	1192
0	192335	79382	1642
0	192350	79382	1632
0	192367	79382	1622
0	192378	79382	1612
0	192395	79382	1602
0	192406	79382	1592
0	192423	79382	1582
0	192434	79382	1572
0	192451	79382	1562
0	192462	79382	1552
0	192479	79382	1542
0	192490	79382	1532
0	192507	79382	1522
0	192518	79382	1512
0	192535	79382	1502
0	192546	79382	1492
0	192563	79382	1482
0	192574	79382	1472
0	192591	79382	1462
0	192602	79382	1452
0	192619	79382	1442
0	192630	79382	1432
0	192647	79382	1422
0	192658	79382	1412
0	192675	79382	1402
0	192686	79382	1392
0	192703	79382	1382
0	192714	79382	1372
0	192731	79382	1362
0	192742	79382	1352
0	192759	79382	1342
0	192770	79382	1332
0	192787	79382	1322
0	192798	79382	1312
0	192815	79382	1302
0	192826	79382	1292
0	192843	79382	1282
0	192854	79382	1272
0	192871	79382	1262
0	192882	79382	1252
0	192899	79382	1242
0	192910	79382	1232
0	192927	79382	1222
0	192938	79382	1212
0	192951	79382	1202
0	192971	79392	1202
0	192995	79402	1202
0	193019	79412	1202
0	193045	79422	1202
0	193068	79432	1202
0	193091	79442	1202
0	193114	79452	1202
0	193137	79462	1202
0	193160	79472	1202
0	193183	79482	1202
0	193206	79492	1202
0	193229	79502	1202
0	193252	79512	1202
0	193275	79522	1202
0	193298	79532	1202
0	193321	79542	1202
0	193344	79552	1202
0	193367	79562	1202
0	193390	79572	1202
0	193413	79582	1202
0	193436	79592	1202
0	193459	79602	1202
0	193482	79612	1202
0	193505	79622	1202
0	193528	79632	1202

