version 2
run General-0-20250129-20:05:02-210881
attr configname General
attr datetime 20250129-20:05:02
attr experiment General
attr inifile shaw_exist.ini
attr iterationvars ""
attr iterationvarsf ""
attr measurement ""
attr network src.dtnsim
attr processid 210881
attr repetition 0
attr replication #0
attr resultdir results
attr runnumber 0
attr seedset 0
param dtnsim.central.contactsFile "\"contactPlan/Contacts.txt\""
param dtnsim.central.contactsFile_A "\"contactPlan/Contacts_A.txt\""
param dtnsim.central.contactsFile_B "\"contactPlan/Contacts_B.txt\""
param dtnsim.central.contactIdsToDelete "\"6 7 8 10 13 21 28 30 34 40 44 47 48 54 55 56 57 70 73 75 77 81 83 84 90 92 106 109 116 117 118 127 128 129 136 137 152 160 171 172 175 176 177 184 189 190 193 194 196 197 200 206 210 213 224 227 228 230 250 254 256 257 262 266 272 282 287 288 289 290 291 292 295 310 313 314 315 316 321 322 325 327 329 333 341 346 351 352 355 356 361 364 369 376 378 383 386 389 393 397\""
param dtnsim.central.contactIdsToDelete_from_celestialA "\"7 8 21 28 34 44 47 48 54 57 70 75 77 81 92 109 116 128 129 136 137 152 172 175 176 177 184 189 190 193 194 196 206 213 224 228 250 254 257 262 282 287 291 292 295 310 314 325 329 333 341 346 355 361 364 369 376 383 386 393\""
param dtnsim.central.contactIdsToDelete_from_celestialB "\"6 10 13 30 40 55 56 73 83 84 90 106 117 118 127 160 171 197 200 210 227 230 256 266 272 288 289 290 313 315 316 321 322 327 351 352 356 378 389 397\""
param dtnsim.central.celestialA_nodes "\"1 2 3\""
param dtnsim.central.celestialB_nodes "\"4 5 6\""
param dtnsim.central.locallyfaultsAware true
param dtnsim.central.mode_two_celestial true
param dtnsim.central.faultsAware false
param dtnsim.nodesNumber 6
param dtnsim.node[1].icon "\"receiverdish\""
param dtnsim.node[2..5].icon "\"satellite\""
param dtnsim.node[6].icon "\"receiverdish\""
param dtnsim.node[*].dtn.routing "\"cgrModel350\""
param dtnsim.node[*].dtn.routingType "\"routeListType:allPaths-firstEnding,volumeAware:allContacts,extensionBlock:on,contactPlan:global\""
param dtnsim.node[1].app.enable true
param dtnsim.node[1].app.custodyTransfer true
param dtnsim.node[1].app.bundlesNumber "\"400\""
param dtnsim.node[1].app.start "\"0\""
param dtnsim.node[1].app.destinationEid "\"6\""
param dtnsim.node[1].app.size "\"1500\""
param dtnsim.node[1].app.interval 1
param dtnsim.node[*].app.custodyTimeout 100000000000000
param dtnsim.node[1].app.ttl 350

vector 0 dtnsim.node[6].app appBundleReceivedDelayvec:vector ETV
attr interpolationmode none
attr source appBundleReceivedDelay
attr title "appBundleReceivedDelayvec, vector"
0	252	8.47	8.47
0	253	8.47	7.47
0	254	8.47	6.47
0	255	8.47	5.47
0	256	8.47	4.47
0	257	8.47	3.47
0	258	8.47	2.47
0	259	8.47	1.47
0	335	9.47	1.47
0	390	10.47	1.47
0	431	11.47	1.47
0	472	12.47	1.47
0	513	13.47	1.47
0	554	14.47	1.47
0	595	15.47	1.47
0	636	16.47	1.47
0	677	17.47	1.47
0	718	18.47	1.47
0	759	19.47	1.47
0	800	20.47	1.47
0	841	21.47	1.47
0	882	22.47	1.47
0	923	23.47	1.47
0	964	24.47	1.47
0	1005	25.47	1.47
0	1046	26.47	1.47
0	1087	27.47	1.47
0	1128	28.47	1.47
0	1169	29.47	1.47
0	1210	30.47	1.47
0	1251	31.47	1.47
0	1292	32.47	1.47
0	1333	33.47	1.47
0	1374	34.47	1.47
0	1415	35.47	1.47
0	1456	36.47	1.47
0	1497	37.47	1.47
0	1538	38.47	1.47
0	1579	39.47	1.47
0	1620	40.47	1.47
0	1661	41.47	1.47
0	1702	42.47	1.47
0	1743	43.47	1.47
0	1784	44.47	1.47
0	1825	45.47	1.47
0	1866	46.47	1.47
0	1907	47.47	1.47
0	1948	48.47	1.47
0	1989	49.47	1.47
0	2030	50.47	1.47
0	2068	51.47	1.47
0	2161	53.63	2.63
0	2162	53.63	1.63
0	2236	55.01	2.01
0	2419	59.21	5.21
0	2420	59.21	4.21
0	2421	59.21	3.21
0	2422	59.21	2.21
0	2480	59.63	1.63
0	2530	60.63	1.63
0	2600	61.63	1.63
0	2870	65.77	4.77
0	2871	65.77	3.77
0	2872	65.77	2.77
0	2902	65.89	1.89
0	2990	66.89	1.89
0	3068	67.89	1.89
0	3143	68.89	1.89
0	3208	69.89	1.89
0	3272	70.89	1.89
0	3342	71.89	1.89
0	3411	72.89	1.89
0	3475	73.89	1.89
0	3540	74.89	1.89
0	3579	75.89	1.89
0	4043	83.89	8.89
0	4044	83.89	7.89
0	4045	83.89	6.89
0	4046	83.89	5.89
0	4047	83.89	4.89
0	4048	83.89	3.89
0	4049	83.89	2.89
0	4050	83.89	1.89
0	4148	84.89	1.89
0	4227	85.89	1.89
0	4292	86.89	1.89
0	4357	87.89	1.89
0	4422	88.89	1.89
0	4487	89.89	1.89
0	4552	90.89	1.89
0	4617	91.89	1.89
0	4682	92.89	1.89
0	4747	93.89	1.89
0	4812	94.89	1.89
0	4877	95.89	1.89
0	4942	96.89	1.89
0	5007	97.89	1.89
0	5072	98.89	1.89
0	5137	99.89	1.89
0	5202	100.89	1.89
0	5267	101.89	1.89
0	5332	102.89	1.89
0	5397	103.89	1.89
0	5462	104.89	1.89
0	5527	105.89	1.89
0	5592	106.89	1.89
0	5673	107.89	1.89
0	5748	108.89	1.89
0	5816	109.89	1.89
0	5884	110.89	1.89
0	5952	111.89	1.89
0	6020	112.89	1.89
0	6088	113.89	1.89
0	6156	114.89	1.89
0	6224	115.89	1.89
0	6292	116.89	1.89
0	6336	117.89	1.89
0	6384	118.66	1.66
0	6428	119.66	1.66
0	6495	120.66	1.66
0	6554	121.66	1.66
0	6613	122.66	1.66
0	6672	123.66	1.66
0	6743	124.63	1.63
0	6816	125.63	1.63
0	6903	126.63	1.63
0	7003	128.47	2.47
0	7004	128.47	1.47
0	7058	129.47	1.47
0	7112	130.47	1.47
0	7163	131.47	1.47
0	7246	132.47	1.47
0	7293	133.47	1.47
0	7613	142.52	9.52
0	7614	142.52	8.52
0	7615	142.52	7.52
0	7616	142.52	6.52
0	7617	142.52	5.52
0	7618	142.52	4.52
0	7619	142.52	3.52
0	7620	142.52	2.52
0	7621	142.52	1.52
0	7704	143.52	1.52
0	7762	144.52	1.52
0	7821	145.52	1.52
0	7887	146.52	1.52
0	7949	147.52	1.52
0	8009	148.52	1.52
0	8069	149.52	1.52
0	8129	150.52	1.52
0	8191	151.52	1.52
0	8252	152.52	1.52
0	8319	153.52	1.52
0	8384	154.52	1.52
0	8447	155.52	1.52
0	8509	156.52	1.52
0	8571	157.52	1.52
0	8633	158.52	1.52
0	8704	159.52	1.52
0	8768	160.52	1.52
0	8831	161.52	1.52
0	8893	162.52	1.52
0	8954	163.52	1.52
0	9023	164.52	1.52
0	9086	165.52	1.52
0	9153	166.52	1.52
0	9217	167.52	1.52
0	9281	168.52	1.52
0	9348	169.52	1.52
0	9412	170.52	1.52
0	9475	171.52	1.52
0	9528	172.52	1.52
0	9581	173.52	1.52
0	9634	174.52	1.52
0	9684	175.52	1.52
0	9734	176.52	1.52
0	9783	177.52	1.52
0	9832	178.52	1.52
0	9881	179.52	1.52
0	9932	180.52	1.52
0	9982	181.52	1.52
0	10056	182.52	1.52
0	10109	183.52	1.52
0	10170	184.52	1.52
0	10222	185.52	1.52
0	10278	186.52	1.52
0	10339	187.52	1.52
0	10396	188.52	1.52
0	10449	189.52	1.52
0	10502	190.52	1.52
0	10557	191.52	1.52
0	10608	192.52	1.52
0	10734	194.84	2.84
0	10735	194.84	1.84
0	10808	195.84	1.84
0	10875	196.84	1.84
0	10942	197.84	1.84
0	11008	198.84	1.84
0	11074	199.84	1.84
0	11138	200.84	1.84
0	11199	201.84	1.84
0	11260	202.84	1.84
0	11321	203.84	1.84
0	11410	204.84	1.84
0	11477	205.84	1.84
0	11544	206.84	1.84
0	11608	207.84	1.84
0	11661	208.47	1.47
0	11724	209.47	1.47
0	11787	210.47	1.47
0	11849	211.47	1.47
0	11911	212.47	1.47
0	11976	213.47	1.47
0	12029	214.47	1.47
0	12082	215.47	1.47
0	12137	216.47	1.47
0	12191	217.47	1.47
0	12245	218.47	1.47
0	12298	219.47	1.47
0	12350	220.47	1.47
0	12399	221.47	1.47
0	12482	223.6	1.6
0	12536	224.6	1.6
0	12591	225.6	1.6
0	12645	226.6	1.6
0	12700	227.6	1.6
0	12755	228.6	1.6
0	12809	229.6	1.6
0	12863	230.6	1.6
0	12917	231.6	1.6
0	12971	232.6	1.6
0	13023	233.6	1.6
0	13074	234.6	1.6
0	13123	235.6	1.6
0	13179	236.6	1.6
0	13245	237.6	1.6
0	13307	238.6	1.6
0	13367	239.6	1.6
0	13426	240.6	1.6
0	13505	241.6	1.6
0	13575	242.6	1.6
0	13637	243.6	1.6
0	13699	244.6	1.6
0	13763	245.6	1.6
0	13824	246.6	1.6
0	13886	247.6	1.6
0	13948	248.6	1.6
0	14008	249.6	1.6
0	14068	250.6	1.6
0	14128	251.6	1.6
0	14188	252.6	1.6
0	14252	253.6	1.6
0	14313	254.6	1.6
0	14374	255.6	1.6
0	14435	256.6	1.6
0	14493	257.6	1.6
0	15751	282.21	25.21
0	15752	282.21	24.21
0	15753	282.21	23.21
0	15754	282.21	22.21
0	15755	282.21	21.21
0	15756	282.21	20.21
0	15757	282.21	19.21
0	15758	282.21	18.21
0	15759	282.21	61.21
0	15760	282.21	17.21
0	15761	282.21	16.21
0	15762	282.21	15.21
0	15763	282.21	14.21
0	15764	282.21	13.21
0	15765	282.21	12.21
0	15766	282.21	11.21
0	15767	282.21	10.21
0	15768	282.21	9.21
0	15769	282.21	8.21
0	15770	282.21	7.21
0	15771	282.21	6.21
0	15772	282.21	5.21
0	15773	282.21	4.21
0	15774	282.21	3.21
0	15775	282.21	2.21
0	16064	282.63	1.63
0	16257	283.63	1.63
0	16335	284.63	1.63
0	16647	285.63	1.63
0	16740	286.63	1.63
0	16833	287.63	1.63
0	16926	288.63	1.63
0	17019	289.63	1.63
0	17114	290.63	1.63
0	17214	291.63	1.63
0	17296	292.63	1.63
0	17381	293.63	1.63
0	17464	294.63	1.63
0	17549	295.63	1.63
0	17625	296.63	1.63
0	17683	297.47	1.47
0	17737	298.47	1.47
0	17791	299.47	1.47
0	17845	300.47	1.47
0	17899	301.47	1.47
0	17955	302.47	1.47
0	18012	303.47	1.47
0	18071	304.47	1.47
0	18128	305.47	1.47
0	18185	306.47	1.47
0	18242	307.47	1.47
0	18299	308.47	1.47
0	18355	309.47	1.47
0	18411	310.47	1.47
0	18467	311.47	1.47
0	18523	312.47	1.47
0	18580	313.47	1.47
0	18627	314.47	1.47
0	18673	315.47	1.47
0	18719	316.47	1.47
0	18769	317.47	1.47
0	18816	318.47	1.47
0	18863	319.47	1.47
0	19039	324.01	5.01
0	19040	324.01	4.01
0	19041	324.01	3.01
0	19042	324.01	2.01
0	19094	324.47	1.47
0	19141	325.47	1.47
0	19188	326.47	1.47
0	19235	327.47	1.47
0	19282	328.47	1.47
0	19329	329.47	1.47
0	19375	330.47	1.47
0	19404	331.47	1.47
0	19738	341.47	10.47
0	19739	341.47	9.47
0	19740	341.47	8.47
0	19741	341.47	7.47
0	19742	341.47	6.47
0	19743	341.47	5.47
0	19744	341.47	4.47
0	19745	341.47	3.47
0	19746	341.47	2.47
0	19747	341.47	1.47
0	19889	342.47	1.47
0	19961	343.47	1.47
0	20015	344.47	1.47
0	20069	345.47	1.47
0	20123	346.47	1.47
0	20176	347.47	1.47
0	20229	348.47	1.47
0	20282	349.47	1.47
0	20337	350.47	1.47

