version 2
run General-0-20250118-14:12:52-220820
attr configname General
attr datetime 20250118-14:12:52
attr experiment General
attr inifile shaw_false.ini
attr iterationvars ""
attr iterationvarsf ""
attr measurement ""
attr network src.dtnsim
attr processid 220820
attr repetition 0
attr replication #0
attr resultdir results
attr runnumber 0
attr seedset 0
param dtnsim.central.contactsFile "\"contactPlan/Contacts.txt\""
param dtnsim.central.contactsFile_A "\"contactPlan/Contacts.txt\""
param dtnsim.central.contactsFile_B "\"contactPlan/Contacts.txt\""
param dtnsim.central.contactIdsToDelete_from_celestialA "\"21 32 37 46 52 55 68 69 89 90 91 98 100 109 113 127 167 169 185 188 190 216 220 221 222 229 237 238 239 244 249 263 271 299 303 337 340 346 353 360 361 362 365 371 375 393 408 413 425 442\""
param dtnsim.central.contactIdsToDelete_from_celestialB "\"8 12 30 48 64 66 70 111 120 123 124 129 141 143 158 163 174 178 189 204 231 236 251 268 270 293 308 310 313 319 334 342 356 364 367 376 377 399 404 406 409 414 427 439 445 460 469 472 474 476\""
param dtnsim.central.celestialA_nodes "\"1 2 3\""
param dtnsim.central.celestialB_nodes "\"4 5 6\""
param dtnsim.central.locallyfaultsAware false
param dtnsim.central.mode_two_celestial true
param dtnsim.nodesNumber 6
param dtnsim.node[1].icon "\"receiverdish\""
param dtnsim.node[2..5].icon "\"satellite\""
param dtnsim.node[6].icon "\"receiverdish\""
param dtnsim.node[*].dtn.routing "\"cgrModel350\""
param dtnsim.node[*].dtn.routingType "\"routeListType:allPaths-firstEnding,volumeAware:allContacts,extensionBlock:on,contactPlan:global\""
param dtnsim.node[1].app.enable true
param dtnsim.node[1].app.bundlesNumber "\"8000\""
param dtnsim.node[1].app.start "\"0\""
param dtnsim.node[1].app.destinationEid "\"6\""
param dtnsim.node[1].app.size "\"1500\""
param dtnsim.node[1].app.interval 10

vector 0 dtnsim.node[6].app appBundleReceivedDelayvec:vector ETV
attr interpolationmode none
attr source appBundleReceivedDelay
attr title "appBundleReceivedDelayvec, vector"
0	12256	47487	2527
0	12262	47487	2517
0	12268	47487	2507
0	12274	47487	2497
0	12280	47487	2487
0	12286	47487	2477
0	12292	47487	2467
0	12298	47487	2457
0	12304	47487	2447
0	12310	47487	2437
0	12316	47487	2427
0	12322	47487	2417
0	12328	47487	2407
0	12334	47487	2397
0	12340	47487	2387
0	12346	47487	2377
0	12352	47487	2367
0	12358	47487	2357
0	12364	47487	2347
0	12370	47487	2337
0	12376	47487	2327
0	12382	47487	2317
0	12388	47487	2307
0	12394	47487	2297
0	12400	47487	2287
0	12406	47487	2277
0	12412	47487	2267
0	12418	47487	2257
0	12424	47487	2247
0	12430	47487	2237
0	12436	47487	2227
0	12442	47487	2217
0	12448	47487	2207
0	12454	47487	2197
0	12460	47487	2187
0	12466	47487	2177
0	12472	47487	2167
0	12478	47487	2157
0	12484	47487	2147
0	12490	47487	2137
0	12496	47487	2127
0	12502	47487	2117
0	12508	47487	2107
0	12514	47487	2097
0	12520	47487	2087
0	12526	47487	2077
0	12532	47487	2067
0	12538	47487	2057
0	12544	47487	2047
0	12550	47487	2037
0	12556	47487	2027
0	12562	47487	2017
0	12568	47487	2007
0	12574	47487	1997
0	12580	47487	1987
0	12586	47487	1977
0	12592	47487	1967
0	12598	47487	1957
0	12604	47487	1947
0	12610	47487	1937
0	12616	47487	1927
0	12622	47487	1917
0	12628	47487	1907
0	12634	47487	1897
0	12640	47487	1887
0	12646	47487	1877
0	12652	47487	1867
0	12658	47487	1857
0	12664	47487	1847
0	12670	47487	1837
0	12676	47487	1827
0	12682	47487	1817
0	12688	47487	1807
0	12694	47487	1797
0	12700	47487	1787
0	12706	47487	1777
0	12712	47487	1767
0	12718	47487	1757
0	12724	47487	1747
0	12730	47487	1737
0	12736	47487	1727
0	12742	47487	1717
0	12748	47487	1707
0	12754	47487	1697
0	12760	47487	1687
0	12766	47487	1677
0	12772	47487	1667
0	12778	47487	1657
0	12784	47487	1647
0	12790	47487	1637
0	12796	47487	1627
0	12802	47487	1617
0	12808	47487	1607
0	12814	47487	1597
0	12820	47487	1587
0	12826	47487	1577
0	12832	47487	1567
0	12838	47487	1557
0	12844	47487	1547
0	12850	47487	1537
0	12856	47487	1527
0	12862	47487	1517
0	12868	47487	1507
0	12874	47487	1497
0	12880	47487	1487
0	12886	47487	1477
0	12892	47487	1467
0	12898	47487	1457
0	12904	47487	1447
0	12910	47487	1437
0	12916	47487	1427
0	12922	47487	1417
0	12928	47487	1407
0	12934	47487	1397
0	12940	47487	1387
0	12946	47487	1377
0	12952	47487	1367
0	12958	47487	1357
0	12964	47487	1347
0	12970	47487	1337
0	12976	47487	1327
0	12982	47487	1317
0	12988	47487	1307
0	12994	47487	1297
0	13000	47487	1287
0	13006	47487	1277
0	13012	47487	1267
0	13018	47487	1257
0	13024	47487	1247
0	13030	47487	1237
0	13036	47487	1227
0	13042	47487	1217
0	13048	47487	1207
0	13054	47487	1197
0	13074	47494	1194
0	13094	47504	1194
0	13114	47514	1194
0	13134	47524	1194
0	13154	47534	1194
0	13174	47544	1194
0	13194	47554	1194
0	13214	47564	1194
0	13234	47574	1194
0	13254	47584	1194
0	13274	47594	1194
0	13294	47604	1194
0	13314	47614	1194
0	13334	47624	1194
0	13354	47634	1194
0	13374	47644	1194
0	13394	47654	1194
0	13414	47664	1194
0	13434	47674	1194
0	13454	47684	1194
0	13474	47694	1194
0	13494	47704	1194
0	13514	47714	1194
0	13534	47724	1194
0	13554	47734	1194
0	13574	47744	1194
0	13594	47754	1194
0	13614	47764	1194
0	13634	47774	1194
0	13654	47784	1194
0	13674	47794	1194
0	13694	47804	1194
0	13714	47814	1194
0	13734	47824	1194
0	13754	47834	1194
0	13774	47844	1194
0	13794	47854	1194
0	13814	47864	1194
0	13834	47874	1194
0	13854	47884	1194
0	13874	47894	1194
0	13894	47904	1194
0	13914	47914	1194
0	13934	47924	1194
0	13954	47934	1194
0	13974	47944	1194
0	13994	47954	1194
0	14014	47964	1194
0	14034	47974	1194
0	14054	47984	1194
0	14074	47994	1194
0	14094	48004	1194
0	14115	48014	1194
0	27853	55920	9090
0	27866	55920	9080
0	27876	55920	9070
0	27883	55920	9060
0	27889	55920	9050
0	27895	55920	9040
0	27901	55920	9030
0	27907	55920	9020
0	27913	55920	9010
0	27919	55920	9000
0	27925	55920	8990
0	27931	55920	8980
0	27937	55920	8970
0	27943	55920	8960
0	27949	55920	8950
0	27955	55920	8940
0	27961	55920	8930
0	27967	55920	8920
0	27973	55920	8910
0	27979	55920	8900
0	27985	55920	8890
0	27991	55920	8880
0	27997	55920	8870
0	28003	55920	8860
0	28009	55920	8850
0	28015	55920	8840
0	28021	55920	8830
0	28027	55920	8820
0	28033	55920	8810
0	28039	55920	8800
0	28045	55920	8790
0	28051	55920	8780
0	28057	55920	8770
0	28063	55920	8760
0	28069	55920	8750
0	28075	55920	8740
0	28081	55920	8730
0	28087	55920	8720
0	28093	55920	8710
0	28099	55920	8700
0	28105	55920	8690
0	28111	55920	8680
0	28117	55920	8670
0	28123	55920	8660
0	28129	55920	8650
0	28135	55920	8640
0	28141	55920	8630
0	28147	55920	8620
0	28153	55920	8610
0	28159	55920	8600
0	28165	55920	8590
0	28171	55920	8580
0	28177	55920	8570
0	28183	55920	8560
0	28189	55920	8550
0	28195	55920	8540
0	28201	55920	8530
0	28207	55920	8520
0	28213	55920	8510
0	28219	55920	8500
0	28225	55920	8490
0	28231	55920	8480
0	28237	55920	8470
0	28243	55920	8460
0	28249	55920	8450
0	28255	55920	8440
0	28261	55920	8430
0	28267	55920	8420
0	28273	55920	8410
0	28279	55920	8400
0	28285	55920	8390
0	28291	55920	8380
0	28297	55920	8370
0	28303	55920	8360
0	28309	55920	8350
0	28315	55920	8340
0	28321	55920	8330
0	28327	55920	8320
0	28333	55920	8310
0	28339	55920	8300
0	28345	55920	8290
0	28351	55920	8280
0	28357	55920	8270
0	28363	55920	8260
0	28369	55920	8250
0	28375	55920	8240
0	28381	55920	8230
0	28387	55920	8220
0	28393	55920	8210
0	28399	55920	8200
0	28405	55920	8190
0	28411	55920	8180
0	28417	55920	8170
0	28423	55920	8160
0	28429	55920	8150
0	28435	55920	8140
0	28441	55920	8130
0	28447	55920	8120
0	28453	55920	8110
0	28459	55920	8100
0	28465	55920	8090
0	28471	55920	8080
0	28477	55920	8070
0	28483	55920	8060
0	28489	55920	8050
0	28495	55920	8040
0	28501	55920	8030
0	28507	55920	8020
0	28513	55920	8010
0	28519	55920	8000
0	28525	55920	7990
0	28531	55920	7980
0	28537	55920	7970
0	28543	55920	7960
0	28549	55920	7950
0	28555	55920	7940
0	28561	55920	7930
0	28567	55920	7920
0	28573	55920	7910
0	28579	55920	5660
0	28585	55920	5650
0	28591	55920	5640
0	28597	55920	5630
0	28603	55920	5620
0	28609	55920	5610
0	28615	55920	5600
0	28621	55920	5590
0	28627	55920	5580
0	28633	55920	5570
0	28639	55920	5560
0	28645	55920	5550
0	28651	55920	5540
0	28657	55920	5530
0	28663	55920	5520
0	28669	55920	5510
0	28675	55920	5500
0	28681	55920	5490
0	28687	55920	5480
0	28693	55920	5470
0	28699	55920	5460
0	28705	55920	5450
0	28711	55920	5440
0	28717	55920	5430
0	28723	55920	5420
0	28729	55920	5410
0	28735	55920	5400
0	28741	55920	5390
0	28747	55920	5380
0	28753	55920	5370
0	28759	55920	5360
0	28765	55920	5350
0	28771	55920	5340
0	28777	55920	5330
0	28783	55920	5320
0	28789	55920	5310
0	28795	55920	5300
0	28801	55920	5290
0	28807	55920	5280
0	28813	55920	5270
0	28819	55920	5260
0	28825	55920	5250
0	28831	55920	5240
0	28837	55920	5230
0	28843	55920	5220
0	28849	55920	5210
0	28855	55920	5200
0	28861	55920	5190
0	28867	55920	5180
0	28873	55920	5170
0	28879	55920	5160
0	28885	55920	5150
0	28891	55920	5140
0	28897	55920	5130
0	28903	55920	5120
0	28909	55920	5110
0	28915	55920	5100
0	28921	55920	5090
0	28927	55920	5080
0	28933	55920	5070
0	28939	55920	5060
0	28945	55920	5050
0	28951	55920	5040
0	28957	55920	5030
0	28963	55920	5020
0	28969	55920	5010
0	28975	55920	5000
0	28981	55920	4990
0	28987	55920	4980
0	28993	55920	4970
0	28999	55920	4960
0	29005	55920	4950
0	29011	55920	4940
0	29017	55920	4930
0	29023	55920	4920
0	29029	55920	4910
0	29035	55920	4900
0	29041	55920	4890
0	29047	55920	4880
0	29053	55920	4870
0	29059	55920	4860
0	29065	55920	4850
0	29071	55920	4840
0	29077	55920	4830
0	29083	55920	4820
0	29089	55920	4810
0	29095	55920	4800
0	29101	55920	4790
0	29107	55920	4780
0	29113	55920	4770
0	29119	55920	4760
0	29125	55920	4750
0	29131	55920	4740
0	29137	55920	4730
0	29143	55920	4720
0	29149	55920	4710
0	29155	55920	4700
0	29161	55920	4690
0	29167	55920	4680
0	29173	55920	4670
0	29179	55920	4660
0	29185	55920	4650
0	29191	55920	4640
0	29197	55920	4630
0	29203	55920	4620
0	29209	55920	4610
0	29215	55920	4600
0	29221	55920	4590
0	29227	55920	4580
0	29233	55920	4570
0	29239	55920	4560
0	29245	55920	4550
0	29251	55920	4540
0	29257	55920	4530
0	29263	55920	4520
0	29269	55920	4510
0	29275	55920	4500
0	29281	55920	4490
0	29287	55920	4480
0	29293	55920	4470
0	29299	55920	4460
0	29305	55920	4450
0	29311	55920	4440
0	29317	55920	4430
0	29323	55920	4420
0	29329	55920	4410
0	29335	55920	4400
0	29341	55920	4390
0	29347	55920	4380
0	29353	55920	4370
0	29359	55920	4360
0	29365	55920	4350
0	29371	55920	4340
0	29377	55920	4330
0	29383	55920	4320
0	29389	55920	4310
0	29395	55920	4300
0	29401	55920	4290
0	29407	55920	4280
0	29413	55920	4270
0	29419	55920	4260
0	29425	55920	4250
0	29431	55920	4240
0	29437	55920	4230
0	29443	55920	4220
0	29449	55920	4210
0	29455	55920	4200
0	29461	55920	4190
0	29467	55920	4180
0	29473	55920	4170
0	29479	55920	4160
0	29485	55920	4150
0	29491	55920	4140
0	29497	55920	4130
0	29503	55920	4120
0	29509	55920	4110
0	29515	55920	4100
0	29521	55920	4090
0	29527	55920	4080
0	29533	55920	4070
0	29539	55920	4060
0	29545	55920	4050
0	29551	55920	4040
0	29557	55920	4030
0	29563	55920	4020
0	29569	55920	4010
0	29575	55920	4000
0	29581	55920	3990
0	29587	55920	3980
0	29593	55920	3970
0	29599	55920	3960
0	29605	55920	3950
0	29611	55920	3940
0	29617	55920	3930
0	29623	55920	3920
0	29629	55920	3910
0	29635	55920	3900
0	29641	55920	3890
0	29647	55920	3880
0	29653	55920	3870
0	29659	55920	3860
0	29665	55920	3850
0	29671	55920	3840
0	29677	55920	3830
0	29683	55920	3820
0	29689	55920	3810
0	29695	55920	3800
0	29701	55920	3790
0	29707	55920	3780
0	29713	55920	3770
0	29719	55920	3760
0	29725	55920	3750
0	29731	55920	3740
0	29737	55920	3730
0	29743	55920	3720
0	29749	55920	3710
0	29755	55920	3700
0	29761	55920	3690
0	29767	55920	3680
0	29773	55920	3670
0	29779	55920	3660
0	29785	55920	3650
0	29791	55920	3640
0	29797	55920	3630
0	29803	55920	3620
0	29809	55920	3610
0	29815	55920	3600
0	29821	55920	3590
0	29827	55920	3580
0	29833	55920	3570
0	29839	55920	3560
0	29845	55920	3550
0	29851	55920	3540
0	29857	55920	3530
0	29863	55920	3520
0	29869	55920	3510
0	29875	55920	3500
0	29881	55920	3490
0	29887	55920	3480
0	29893	55920	3470
0	29899	55920	3460
0	29905	55920	3450
0	29911	55920	3440
0	29917	55920	3430
0	29923	55920	3420
0	29929	55920	3410
0	29935	55920	3400
0	29941	55920	3390
0	29947	55920	3380
0	29953	55920	3370
0	29959	55920	3360
0	29965	55920	3350
0	29971	55920	3340
0	29977	55920	3330
0	29983	55920	3320
0	29989	55920	3310
0	29995	55920	3300
0	30001	55920	3290
0	30007	55920	3280
0	30013	55920	3270
0	30019	55920	3260
0	30025	55920	3250
0	30031	55920	3240
0	30037	55920	3230
0	30043	55920	3220
0	30049	55920	3210
0	30055	55920	3200
0	30061	55920	3190
0	30067	55920	3180
0	30073	55920	3170
0	30079	55920	3160
0	30085	55920	3150
0	30091	55920	3140
0	30097	55920	3130
0	30103	55920	3120
0	30109	55920	3110
0	30115	55920	3100
0	30121	55920	3090
0	30127	55920	3080
0	30133	55920	3070
0	30139	55920	3060
0	30145	55920	3050
0	30151	55920	3040
0	30157	55920	3030
0	30163	55920	3020
0	30169	55920	3010
0	30175	55920	3000
0	30181	55920	2990
0	30187	55920	2980
0	30193	55920	2970
0	30199	55920	2960
0	30205	55920	2950
0	30211	55920	2940
0	30217	55920	2930
0	30223	55920	2920
0	30229	55920	2910
0	30235	55920	2900
0	30241	55920	2890
0	30247	55920	2880
0	30253	55920	2870
0	30259	55920	2860
0	30265	55920	2850
0	30271	55920	2840
0	30277	55920	2830
0	30283	55920	2820
0	30289	55920	2810
0	30295	55920	2800
0	30301	55920	2790
0	30307	55920	2780
0	30313	55920	2770
0	30319	55920	2760
0	30325	55920	2750
0	30331	55920	2740
0	30337	55920	2730
0	30343	55920	2720
0	30349	55920	2710
0	30355	55920	2700
0	30361	55920	2690
0	30367	55920	2680
0	30373	55920	2670
0	30379	55920	2660
0	30385	55920	2650
0	30391	55920	2640
0	30397	55920	2630
0	30403	55920	2620
0	30409	55920	2610
0	30415	55920	2600
0	30421	55920	2590
0	30427	55920	2580
0	30433	55920	2570
0	30439	55920	2560
0	30445	55920	2550
0	30451	55920	2540
0	30457	55920	2530
0	30463	55920	2520
0	30469	55920	2510
0	30475	55920	2500
0	30481	55920	2490
0	30487	55920	2480
0	30493	55920	2470
0	30499	55920	2460
0	30505	55920	2450
0	30511	55920	2440
0	30517	55920	2430
0	30523	55920	2420
0	30529	55920	2410
0	30535	55920	2400
0	30541	55920	2390
0	30547	55920	2380
0	30553	55920	2370
0	30559	55920	2360
0	30565	55920	2350
0	30571	55920	2340
0	30577	55920	2330
0	30583	55920	2320
0	30589	55920	2310
0	30595	55920	2300
0	30601	55920	2290
0	30607	55920	2280
0	30613	55920	2270
0	30619	55920	2260
0	30625	55920	2250
0	30631	55920	2240
0	30637	55920	2230
0	30643	55920	2220
0	30649	55920	2210
0	30655	55920	2200
0	30661	55920	2190
0	30667	55920	2180
0	30673	55920	2170
0	30679	55920	2160
0	30685	55920	2150
0	30691	55920	2140
0	30697	55920	2130
0	30703	55920	2120
0	30709	55920	2110
0	30715	55920	2100
0	30721	55920	2090
0	30727	55920	2080
0	30733	55920	2070
0	30739	55920	2060
0	30745	55920	2050
0	30751	55920	2040
0	30757	55920	2030
0	30763	55920	2020
0	30769	55920	2010
0	30775	55920	2000
0	30781	55920	1990
0	30787	55920	1980
0	30793	55920	1970
0	30799	55920	1960
0	30805	55920	1950
0	30811	55920	1940
0	30817	55920	1930
0	30823	55920	1920
0	30829	55920	1910
0	30835	55920	1900
0	30841	55920	1890
0	30847	55920	1880
0	30853	55920	1870
0	30859	55920	1860
0	30865	55920	1850
0	30871	55920	1840
0	30877	55920	1830
0	30883	55920	1820
0	30889	55920	1810
0	30895	55920	1800
0	30901	55920	1790
0	30907	55920	1780
0	30913	55920	1770
0	30919	55920	1760
0	30925	55920	1750
0	30931	55920	1740
0	30937	55920	1730
0	30943	55920	1720
0	30949	55920	1710
0	30955	55920	1700
0	30961	55920	1690
0	30967	55920	1680
0	30973	55920	1670
0	30979	55920	1660
0	30985	55920	1650
0	30991	55920	1640
0	30997	55920	1630
0	31003	55920	1620
0	31009	55920	1610
0	31015	55920	1600
0	31021	55920	1590
0	31027	55920	1580
0	31033	55920	1570
0	31039	55920	1560
0	31045	55920	1550
0	31051	55920	1540
0	31057	55920	1530
0	31063	55920	1520
0	31069	55920	1510
0	31075	55920	1500
0	31081	55920	1490
0	31087	55920	1480
0	31093	55920	1470
0	31099	55920	1460
0	31105	55920	1450
0	31111	55920	1440
0	31117	55920	1430
0	31123	55920	1420
0	31129	55920	1410
0	31135	55920	1400
0	31141	55920	1390
0	31147	55920	1380
0	31153	55920	1370
0	31159	55920	1360
0	31165	55920	1350
0	31171	55920	1340
0	31177	55920	1330
0	31183	55920	1320
0	31189	55920	1310
0	31195	55920	1300
0	31201	55920	1290
0	31207	55920	1280
0	31213	55920	1270
0	31219	55920	1260
0	31225	55920	1250
0	31231	55920	1240
0	31237	55920	1230
0	31243	55920	1220
0	31249	55920	1210
0	31258	55925	1205
0	31286	55935	1205
0	31314	55945	1205
0	31342	55955	1205
0	31370	55965	1205
0	31398	55975	1205
0	31426	55985	1205
0	31454	55995	1205
0	31482	56005	1205
0	31510	56015	1205
0	31538	56025	1205
0	31566	56035	1205
0	31594	56045	1205
0	31622	56055	1205
0	31650	56065	1205
0	31678	56075	1205
0	31706	56085	1205
0	31734	56095	1205
0	31762	56105	1205
0	31790	56115	1205
0	31818	56125	1205
0	31846	56135	1205
0	31874	56145	1205
0	31902	56155	1205
0	31930	56165	1205
0	31958	56175	1205
0	31986	56185	1205
0	32014	56195	1205
0	32042	56205	1205
0	32070	56215	1205
0	32098	56225	1205
0	32126	56235	1205
0	32154	56245	1205
0	32182	56255	1205
0	32210	56265	1205
0	32238	56275	1205
0	32266	56285	1205
0	32294	56295	1205
0	32324	56305	1205
0	32353	56315	1205
0	32382	56325	1205
0	32411	56335	1205
0	32440	56345	1205
0	32469	56355	1205
0	32498	56365	1205
0	32527	56375	1205
0	32556	56385	1205
0	32585	56395	1205
0	32614	56405	1205
0	32643	56415	1205
0	32672	56425	1205
0	32701	56435	1205
0	32730	56445	1205
0	32759	56455	1205
0	32788	56465	1205
0	32817	56475	1205
0	32846	56485	1205
0	32875	56495	1205
0	32904	56505	1205
0	32933	56515	1205
0	32962	56525	1205
0	32991	56535	1205
0	33020	56545	1205
0	33049	56555	1205
0	33078	56565	1205
0	33107	56575	1205
0	33136	56585	1205
0	33165	56595	1205
0	33194	56605	1205
0	33223	56615	1205
0	33252	56625	1205
0	33265	56635	1205
0	33277	56645	1205
0	33289	56655	1205
0	33301	56665	1205
0	33313	56675	1205
0	33325	56685	1205
0	33337	56695	1205
0	33349	56705	1205
0	33361	56715	1205
0	33373	56725	1205
0	33385	56735	1205
0	33397	56745	1205
0	33409	56755	1205
0	33421	56765	1205
0	33433	56775	1205
0	33445	56785	1205
0	33457	56795	1205
0	33469	56805	1205
0	33483	56815	1205
0	33495	56825	1205
0	33507	56835	1205
0	33519	56845	1205
0	33531	56855	1205
0	33543	56865	1205
0	33555	56875	1205
0	33567	56885	1205
0	33579	56895	1205
0	33591	56905	1205
0	33603	56915	1205
0	33615	56925	1205
0	33627	56935	1205
0	33639	56945	1205
0	33651	56955	1205
0	33664	56965	1205
0	33676	56975	1205
0	33688	56985	1205
0	33700	56995	1205
0	33712	57005	1205
0	33724	57015	1205
0	33736	57025	1205
0	33748	57035	1205
0	33760	57045	1205
0	33772	57055	1205
0	33784	57065	1205
0	33796	57075	1205
0	33808	57085	1205
0	33820	57095	1205
0	33832	57105	1205
0	33844	57115	1205
0	33856	57125	1205
0	33868	57135	1205
0	33880	57145	1205
0	33892	57155	1205
0	33904	57165	1205
0	33916	57175	1205
0	33928	57185	1205
0	33940	57195	1205
0	33952	57205	1205
0	33964	57215	1205
0	33976	57225	1205
0	33988	57235	1205
0	34000	57245	1205
0	34012	57255	1205
0	34024	57265	1205
0	34036	57275	1205
0	34048	57285	1205
0	34060	57295	1205
0	34072	57305	1205
0	34084	57315	1205
0	34096	57325	1205
0	34108	57335	1205
0	34120	57345	1205
0	34132	57355	1205
0	34144	57365	1205
0	34156	57375	1205
0	34168	57385	1205
0	34180	57395	1205
0	34192	57405	1205
0	34206	57415	1205
0	34218	57425	1205
0	34230	57435	1205
0	34242	57445	1205
0	34254	57455	1205
0	34266	57465	1205
0	34278	57475	1205
0	34290	57485	1205
0	34302	57495	1205
0	34314	57505	1205
0	34326	57515	1205
0	34338	57525	1205
0	34350	57535	1205
0	34362	57545	1205
0	57087	70312	1192
0	57178	70322	1192
0	57271	70332	1192
0	57365	70342	1192
0	57459	70352	1192
0	57551	70362	1192
0	57643	70372	1192
0	57735	70382	1192
0	57827	70392	1192
0	57919	70402	1192
0	58013	70412	1192
0	58113	70422	1192
0	58205	70432	1192
0	58297	70442	1192
0	58391	70452	1192
0	58486	70462	1192
0	58579	70472	1192
0	58674	70482	1192
0	58767	70492	1192
0	58860	70502	1192
0	58952	70512	1192
0	59046	70522	1192
0	59141	70532	1192
0	59234	70542	1192
0	59329	70552	1192
0	59422	70562	1192
0	59515	70572	1192
0	59608	70582	1192
0	59703	70592	1192
0	59796	70602	1192
0	59891	70612	1192
0	59985	70622	1192
0	60083	70632	1192

