version 2
run General-0-20250128-16:05:52-69074
attr configname General
attr datetime 20250128-16:05:52
attr experiment General
attr inifile shaw_mine.ini
attr iterationvars ""
attr iterationvarsf ""
attr measurement ""
attr network src.dtnsim
attr processid 69074
attr repetition 0
attr replication #0
attr resultdir results
attr runnumber 0
attr seedset 0
param dtnsim.central.contactsFile "\"contactPlan/Contacts.txt\""
param dtnsim.central.contactsFile_A "\"contactPlan/Contacts.txt\""
param dtnsim.central.contactsFile_B "\"contactPlan/Contacts.txt\""
param dtnsim.central.contactIdsToDelete "\"6 9 13 14 15 17 18 23 24 26 29 43 53 64 65 67 69 75 76 77 79 85 87 88 90 93 95 97 100 105 108 117 127 128 136 137 144 145 148 149 151 153 154 157 158 162 170 177 191 194 201 203 206 222 223 230 234 235 238 239 243 244 245 251 254 255 257 258 259 265 269 273 276 277 282 283 287 293 294 297 301 305 308 315 316 318 321 339 340 347 349 353 354 356 359 365 380 384 391 393\""
param dtnsim.central.contactIdsToDelete_from_celestialA "\"13 15 17 23 29 64 67 77 85 95 97 100 105 117 128 137 148 149 154 191 206 230 235 238 244 255 257 258 265 269 273 276 277 283 294 297 308 316 318 339 347 349 356 359 380 391 393\""
param dtnsim.central.contactIdsToDelete_from_celestialB "\"6 9 14 18 24 26 43 53 65 69 75 76 79 87 88 90 93 108 127 136 144 145 151 153 157 158 162 170 177 194 201 203 222 223 234 239 243 245 251 254 259 282 287 293 301 305 315 321 340 353 354 365 384\""
param dtnsim.central.celestialA_nodes "\"1 2 3\""
param dtnsim.central.celestialB_nodes "\"4 5 6\""
param dtnsim.central.locallyfaultsAware true
param dtnsim.central.mode_two_celestial true
param dtnsim.central.faultsAware false
param dtnsim.nodesNumber 6
param dtnsim.node[1].icon "\"receiverdish\""
param dtnsim.node[2..5].icon "\"satellite\""
param dtnsim.node[6].icon "\"receiverdish\""
param dtnsim.node[*].dtn.routing "\"cgrModel350\""
param dtnsim.node[*].dtn.routingType "\"routeListType:allPaths-firstEnding,volumeAware:allContacts,extensionBlock:on,contactPlan:global\""
param dtnsim.node[1].app.enable true
param dtnsim.node[1].app.custodyTransfer true
param dtnsim.node[1].app.bundlesNumber "\"2000\""
param dtnsim.node[1].app.start "\"0\""
param dtnsim.node[1].app.destinationEid "\"6\""
param dtnsim.node[1].app.size "\"1500\""
param dtnsim.node[1].app.interval 10
param dtnsim.node[*].app.custodyTimeout 10000
param dtnsim.node[1].app.ttl 10000

vector 0 dtnsim.node[6].app appBundleReceivedDelayvec:vector ETV
attr interpolationmode none
attr source appBundleReceivedDelay
attr title "appBundleReceivedDelayvec, vector"
0	7995	1458.07	1458.07
0	7996	1458.07	1448.07
0	7997	1458.07	1438.07
0	7998	1458.07	1428.07
0	7999	1458.07	1418.07
0	8000	1458.07	1408.07
0	8001	1458.07	1398.07
0	8002	1458.07	1388.07
0	8003	1458.07	1378.07
0	8004	1458.07	1368.07
0	8005	1458.07	1358.07
0	8006	1458.07	1348.07
0	8007	1458.07	1338.07
0	8008	1458.07	1328.07
0	8009	1458.07	1318.07
0	8010	1458.07	1308.07
0	8261	1460.07	1300.07
0	8368	1470.07	1300.07
0	8475	1480.07	1300.07
0	8582	1490.07	1300.07
0	8689	1500.07	1300.07
0	8796	1510.07	1300.07
0	8903	1520.07	1300.07
0	9010	1530.07	1300.07
0	9117	1540.07	1300.07
0	9224	1550.07	1300.07
0	9489	1558.07	1558.07
0	9490	1558.07	1548.07
0	9491	1558.07	1538.07
0	9492	1558.07	1528.07
0	9493	1558.07	1518.07
0	9494	1558.07	1508.07
0	9495	1558.07	1498.07
0	9496	1558.07	1488.07
0	9497	1558.07	1478.07
0	9498	1558.07	1468.07
0	9499	1558.07	1458.07
0	9500	1558.07	1448.07
0	9501	1558.07	1438.07
0	9502	1558.07	1428.07
0	9503	1558.07	1418.07
0	9504	1558.07	1408.07
0	9766	1560.07	1400.07
0	9767	1560.07	1300.07
0	9899	1570.07	1400.07
0	9900	1570.07	1300.07
0	10032	1580.07	1400.07
0	10033	1580.07	1300.07
0	10165	1590.07	1400.07
0	10166	1590.07	1300.07
0	10298	1600.07	1400.07
0	10299	1600.07	1300.07
0	10431	1610.07	1400.07
0	10432	1610.07	1300.07
0	10564	1620.07	1400.07
0	10565	1620.07	1300.07
0	10697	1630.07	1400.07
0	10698	1630.07	1300.07
0	10830	1640.07	1400.07
0	10831	1640.07	1300.07
0	10963	1650.07	1400.07
0	10964	1650.07	1300.07
0	11243	1658.07	1658.07
0	11244	1658.07	1648.07
0	11245	1658.07	1638.07
0	11246	1658.07	1628.07
0	11247	1658.07	1618.07
0	11248	1658.07	1608.07
0	11249	1658.07	1598.07
0	11250	1658.07	1588.07
0	11251	1658.07	1578.07
0	11252	1658.07	1568.07
0	11253	1658.07	1558.07
0	11254	1658.07	1548.07
0	11255	1658.07	1538.07
0	11256	1658.07	1528.07
0	11257	1658.07	1518.07
0	11258	1658.07	1508.07
0	11531	1660.07	1500.07
0	11532	1660.07	1400.07
0	11533	1660.07	1300.07
0	11690	1670.07	1500.07
0	11691	1670.07	1400.07
0	11692	1670.07	1300.07
0	11849	1680.07	1500.07
0	11850	1680.07	1400.07
0	11851	1680.07	1300.07
0	12008	1690.07	1500.07
0	12009	1690.07	1400.07
0	12010	1690.07	1300.07
0	12167	1700.07	1500.07
0	12168	1700.07	1400.07
0	12169	1700.07	1300.07
0	12326	1710.07	1500.07
0	12327	1710.07	1400.07
0	12328	1710.07	1300.07
0	12485	1720.07	1500.07
0	12486	1720.07	1400.07
0	12487	1720.07	1300.07
0	12644	1730.07	1500.07
0	12645	1730.07	1400.07
0	12646	1730.07	1300.07
0	12803	1740.07	1500.07
0	12804	1740.07	1400.07
0	12805	1740.07	1300.07
0	12962	1750.07	1500.07
0	12963	1750.07	1400.07
0	12964	1750.07	1300.07
0	13257	1758.07	1758.07
0	13258	1758.07	1748.07
0	13259	1758.07	1738.07
0	13260	1758.07	1728.07
0	13261	1758.07	1718.07
0	13262	1758.07	1708.07
0	13263	1758.07	1698.07
0	13264	1758.07	1688.07
0	13265	1758.07	1678.07
0	13266	1758.07	1668.07
0	13267	1758.07	1658.07
0	13268	1758.07	1648.07
0	13269	1758.07	1638.07
0	13270	1758.07	1628.07
0	13271	1758.07	1618.07
0	13272	1758.07	1608.07
0	13556	1760.07	1600.07
0	13557	1760.07	1500.07
0	13558	1760.07	1400.07
0	13559	1760.07	1300.07
0	13741	1770.07	1600.07
0	13742	1770.07	1500.07
0	13743	1770.07	1400.07
0	13744	1770.07	1300.07
0	13926	1780.07	1600.07
0	13927	1780.07	1500.07
0	13928	1780.07	1400.07
0	13929	1780.07	1300.07
0	14111	1790.07	1600.07
0	14112	1790.07	1500.07
0	14113	1790.07	1400.07
0	14114	1790.07	1300.07
0	14296	1800.07	1600.07
0	14297	1800.07	1500.07
0	14298	1800.07	1400.07
0	14299	1800.07	1300.07
0	14481	1810.07	1600.07
0	14482	1810.07	1500.07
0	14483	1810.07	1400.07
0	14484	1810.07	1300.07
0	14666	1820.07	1600.07
0	14667	1820.07	1500.07
0	14668	1820.07	1400.07
0	14669	1820.07	1300.07
0	14851	1830.07	1600.07
0	14852	1830.07	1500.07
0	14853	1830.07	1400.07
0	14854	1830.07	1300.07
0	15036	1840.07	1600.07
0	15037	1840.07	1500.07
0	15038	1840.07	1400.07
0	15039	1840.07	1300.07
0	15221	1850.07	1600.07
0	15222	1850.07	1500.07
0	15223	1850.07	1400.07
0	15224	1850.07	1300.07
0	15531	1858.07	1858.07
0	15532	1858.07	1848.07
0	15533	1858.07	1838.07
0	15534	1858.07	1828.07
0	15535	1858.07	1818.07
0	15536	1858.07	1808.07
0	15537	1858.07	1798.07
0	15538	1858.07	1788.07
0	15539	1858.07	1778.07
0	15540	1858.07	1768.07
0	15541	1858.07	1758.07
0	15542	1858.07	1748.07
0	15543	1858.07	1738.07
0	15544	1858.07	1728.07
0	15545	1858.07	1718.07
0	15546	1858.07	1708.07
0	15841	1860.07	1700.07
0	15842	1860.07	1600.07
0	15843	1860.07	1500.07
0	15844	1860.07	1400.07
0	15845	1860.07	1300.07
0	16052	1870.07	1700.07
0	16053	1870.07	1600.07
0	16054	1870.07	1500.07
0	16055	1870.07	1400.07
0	16056	1870.07	1300.07
0	16263	1880.07	1700.07
0	16264	1880.07	1600.07
0	16265	1880.07	1500.07
0	16266	1880.07	1400.07
0	16267	1880.07	1300.07
0	16474	1890.07	1700.07
0	16475	1890.07	1600.07
0	16476	1890.07	1500.07
0	16477	1890.07	1400.07
0	16478	1890.07	1300.07
0	16685	1900.07	1700.07
0	16686	1900.07	1600.07
0	16687	1900.07	1500.07
0	16688	1900.07	1400.07
0	16689	1900.07	1300.07
0	16896	1910.07	1700.07
0	16897	1910.07	1600.07
0	16898	1910.07	1500.07
0	16899	1910.07	1400.07
0	16900	1910.07	1300.07
0	17107	1920.07	1700.07
0	17108	1920.07	1600.07
0	17109	1920.07	1500.07
0	17110	1920.07	1400.07
0	17111	1920.07	1300.07
0	17318	1930.07	1700.07
0	17319	1930.07	1600.07
0	17320	1930.07	1500.07
0	17321	1930.07	1400.07
0	17322	1930.07	1300.07
0	17529	1940.07	1700.07
0	17530	1940.07	1600.07
0	17531	1940.07	1500.07
0	17532	1940.07	1400.07
0	17533	1940.07	1300.07
0	17740	1950.07	1700.07
0	17741	1950.07	1600.07
0	17742	1950.07	1500.07
0	17743	1950.07	1400.07
0	17744	1950.07	1300.07
0	18065	1958.07	1958.07
0	18066	1958.07	1948.07
0	18067	1958.07	1938.07
0	18068	1958.07	1928.07
0	18069	1958.07	1918.07
0	18070	1958.07	1908.07
0	18071	1958.07	1898.07
0	18072	1958.07	1888.07
0	18073	1958.07	1878.07
0	18074	1958.07	1868.07
0	18075	1958.07	1858.07
0	18076	1958.07	1848.07
0	18077	1958.07	1838.07
0	18078	1958.07	1828.07
0	18079	1958.07	1818.07
0	18080	1958.07	1808.07
0	18338	1960.07	1800.07
0	18339	1960.07	1700.07
0	18340	1960.07	1600.07
0	18341	1960.07	1500.07
0	18342	1960.07	1400.07
0	18343	1960.07	1300.07
0	18518	1970.07	1800.07
0	18519	1970.07	1700.07
0	18520	1970.07	1600.07
0	18521	1970.07	1500.07
0	18522	1970.07	1400.07
0	18523	1970.07	1300.07
0	18698	1980.07	1800.07
0	18699	1980.07	1700.07
0	18700	1980.07	1600.07
0	18701	1980.07	1500.07
0	18702	1980.07	1400.07
0	18703	1980.07	1300.07
0	18878	1990.07	1800.07
0	18879	1990.07	1700.07
0	18880	1990.07	1600.07
0	18881	1990.07	1500.07
0	18882	1990.07	1400.07
0	18883	1990.07	1300.07
0	19058	2000.07	1800.07
0	19059	2000.07	1700.07
0	19060	2000.07	1600.07
0	19061	2000.07	1500.07
0	19062	2000.07	1400.07
0	19063	2000.07	1300.07
0	19238	2010.07	1800.07
0	19239	2010.07	1700.07
0	19240	2010.07	1600.07
0	19241	2010.07	1500.07
0	19242	2010.07	1400.07
0	19243	2010.07	1300.07
0	19418	2020.07	1800.07
0	19419	2020.07	1700.07
0	19420	2020.07	1600.07
0	19421	2020.07	1500.07
0	19422	2020.07	1400.07
0	19423	2020.07	1300.07
0	19598	2030.07	1800.07
0	19599	2030.07	1700.07
0	19600	2030.07	1600.07
0	19601	2030.07	1500.07
0	19602	2030.07	1400.07
0	19603	2030.07	1300.07
0	19778	2040.07	1800.07
0	19779	2040.07	1700.07
0	19780	2040.07	1600.07
0	19781	2040.07	1500.07
0	19782	2040.07	1400.07
0	19783	2040.07	1300.07
0	19958	2050.07	1800.07
0	19959	2050.07	1700.07
0	19960	2050.07	1600.07
0	19961	2050.07	1500.07
0	19962	2050.07	1400.07
0	19963	2050.07	1300.07
0	20241	2058.07	2058.07
0	20242	2058.07	2048.07
0	20243	2058.07	2038.07
0	20244	2058.07	2028.07
0	20245	2058.07	2018.07
0	20246	2058.07	2008.07
0	20247	2058.07	1998.07
0	20248	2058.07	1988.07
0	20249	2058.07	1978.07
0	20250	2058.07	1968.07
0	20251	2058.07	1958.07
0	20252	2058.07	1948.07
0	20253	2058.07	1938.07
0	20254	2058.07	1928.07
0	20255	2058.07	1918.07
0	20256	2058.07	1908.07
0	20507	2060.07	1900.07
0	20508	2060.07	1800.07
0	20509	2060.07	1700.07
0	20510	2060.07	1600.07
0	20511	2060.07	1500.07
0	20512	2060.07	1400.07
0	20513	2060.07	1300.07
0	20691	2070.07	1900.07
0	20692	2070.07	1800.07
0	20693	2070.07	1700.07
0	20694	2070.07	1600.07
0	20695	2070.07	1500.07
0	20696	2070.07	1400.07
0	20697	2070.07	1300.07
0	20875	2080.07	1900.07
0	20876	2080.07	1800.07
0	20877	2080.07	1700.07
0	20878	2080.07	1600.07
0	20879	2080.07	1500.07
0	20880	2080.07	1400.07
0	20881	2080.07	1300.07
0	21059	2090.07	1900.07
0	21060	2090.07	1800.07
0	21061	2090.07	1700.07
0	21062	2090.07	1600.07
0	21063	2090.07	1500.07
0	21064	2090.07	1400.07
0	21065	2090.07	1300.07
0	21243	2100.07	1900.07
0	21244	2100.07	1800.07
0	21245	2100.07	1700.07
0	21246	2100.07	1600.07
0	21247	2100.07	1500.07
0	21248	2100.07	1400.07
0	21249	2100.07	1300.07
0	21427	2110.07	1900.07
0	21428	2110.07	1800.07
0	21429	2110.07	1700.07
0	21430	2110.07	1600.07
0	21431	2110.07	1500.07
0	21432	2110.07	1400.07
0	21433	2110.07	1300.07
0	21611	2120.07	1900.07
0	21612	2120.07	1800.07
0	21613	2120.07	1700.07
0	21614	2120.07	1600.07
0	21615	2120.07	1500.07
0	21616	2120.07	1400.07
0	21617	2120.07	1300.07
0	21795	2130.07	1900.07
0	21796	2130.07	1800.07
0	21797	2130.07	1700.07
0	21798	2130.07	1600.07
0	21799	2130.07	1500.07
0	21800	2130.07	1400.07
0	21801	2130.07	1300.07
0	21979	2140.07	1900.07
0	21980	2140.07	1800.07
0	21981	2140.07	1700.07
0	21982	2140.07	1600.07
0	21983	2140.07	1500.07
0	21984	2140.07	1400.07
0	21985	2140.07	1300.07
0	22163	2150.07	1900.07
0	22164	2150.07	1800.07
0	22165	2150.07	1700.07
0	22166	2150.07	1600.07
0	22167	2150.07	1500.07
0	22168	2150.07	1400.07
0	22169	2150.07	1300.07
0	22439	2158.07	2158.07
0	22440	2158.07	2148.07
0	22441	2158.07	2138.07
0	22442	2158.07	2128.07
0	22443	2158.07	2118.07
0	22444	2158.07	2108.07
0	22445	2158.07	2098.07
0	22446	2158.07	2088.07
0	22447	2158.07	2078.07
0	22448	2158.07	2068.07
0	22449	2158.07	2058.07
0	22450	2158.07	2048.07
0	22451	2158.07	2038.07
0	22452	2158.07	2028.07
0	22453	2158.07	2018.07
0	22454	2158.07	2008.07
0	22716	2160.07	2000.07
0	22717	2160.07	1900.07
0	22718	2160.07	1800.07
0	22719	2160.07	1700.07
0	22720	2160.07	1600.07
0	22721	2160.07	1500.07
0	22722	2160.07	1400.07
0	22723	2160.07	1300.07
0	22922	2170.07	2000.07
0	22923	2170.07	1900.07
0	22924	2170.07	1800.07
0	22925	2170.07	1700.07
0	22926	2170.07	1600.07
0	22927	2170.07	1500.07
0	22928	2170.07	1400.07
0	22929	2170.07	1300.07
0	23128	2180.07	2000.07
0	23129	2180.07	1900.07
0	23130	2180.07	1800.07
0	23131	2180.07	1700.07
0	23132	2180.07	1600.07
0	23133	2180.07	1500.07
0	23134	2180.07	1400.07
0	23135	2180.07	1300.07
0	23334	2190.07	2000.07
0	23335	2190.07	1900.07
0	23336	2190.07	1800.07
0	23337	2190.07	1700.07
0	23338	2190.07	1600.07
0	23339	2190.07	1500.07
0	23340	2190.07	1400.07
0	23341	2190.07	1300.07
0	23540	2200.07	2000.07
0	23541	2200.07	1900.07
0	23542	2200.07	1800.07
0	23543	2200.07	1700.07
0	23544	2200.07	1600.07
0	23545	2200.07	1500.07
0	23546	2200.07	1400.07
0	23547	2200.07	1300.07
0	23746	2210.07	2000.07
0	23747	2210.07	1900.07
0	23748	2210.07	1800.07
0	23749	2210.07	1700.07
0	23750	2210.07	1600.07
0	23751	2210.07	1500.07
0	23752	2210.07	1400.07
0	23753	2210.07	1300.07
0	23952	2220.07	2000.07
0	23953	2220.07	1900.07
0	23954	2220.07	1800.07
0	23955	2220.07	1700.07
0	23956	2220.07	1600.07
0	23957	2220.07	1500.07
0	23958	2220.07	1400.07
0	23959	2220.07	1300.07
0	24158	2230.07	2000.07
0	24159	2230.07	1900.07
0	24160	2230.07	1800.07
0	24161	2230.07	1700.07
0	24162	2230.07	1600.07
0	24163	2230.07	1500.07
0	24164	2230.07	1400.07
0	24165	2230.07	1300.07
0	24364	2240.07	2000.07
0	24365	2240.07	1900.07
0	24366	2240.07	1800.07
0	24367	2240.07	1700.07
0	24368	2240.07	1600.07
0	24369	2240.07	1500.07
0	24370	2240.07	1400.07
0	24371	2240.07	1300.07
0	24570	2250.07	2000.07
0	24571	2250.07	1900.07
0	24572	2250.07	1800.07
0	24573	2250.07	1700.07
0	24574	2250.07	1600.07
0	24575	2250.07	1500.07
0	24576	2250.07	1400.07
0	24577	2250.07	1300.07
0	24857	2258.07	2258.07
0	24858	2258.07	2248.07
0	24859	2258.07	2238.07
0	24860	2258.07	2228.07
0	24861	2258.07	2218.07
0	24862	2258.07	2208.07
0	24863	2258.07	2198.07
0	24864	2258.07	2188.07
0	24865	2258.07	2178.07
0	24866	2258.07	2168.07
0	24867	2258.07	2158.07
0	24868	2258.07	2148.07
0	24869	2258.07	2138.07
0	24870	2258.07	2128.07
0	24871	2258.07	2118.07
0	24872	2258.07	2108.07
0	25145	2260.07	2100.07
0	25146	2260.07	2000.07
0	25147	2260.07	1900.07
0	25148	2260.07	1800.07
0	25149	2260.07	1700.07
0	25150	2260.07	1600.07
0	25151	2260.07	1500.07
0	25152	2260.07	1400.07
0	25153	2260.07	1300.07
0	25373	2270.07	2100.07
0	25374	2270.07	2000.07
0	25375	2270.07	1900.07
0	25376	2270.07	1800.07
0	25377	2270.07	1700.07
0	25378	2270.07	1600.07
0	25379	2270.07	1500.07
0	25380	2270.07	1400.07
0	25381	2270.07	1300.07
0	25601	2280.07	2100.07
0	25602	2280.07	2000.07
0	25603	2280.07	1900.07
0	25604	2280.07	1800.07
0	25605	2280.07	1700.07
0	25606	2280.07	1600.07
0	25607	2280.07	1500.07
0	25608	2280.07	1400.07
0	25609	2280.07	1300.07
0	25829	2290.07	2100.07
0	25830	2290.07	2000.07
0	25831	2290.07	1900.07
0	25832	2290.07	1800.07
0	25833	2290.07	1700.07
0	25834	2290.07	1600.07
0	25835	2290.07	1500.07
0	25836	2290.07	1400.07
0	25837	2290.07	1300.07
0	26057	2300.07	2100.07
0	26058	2300.07	2000.07
0	26059	2300.07	1900.07
0	26060	2300.07	1800.07
0	26061	2300.07	1700.07
0	26062	2300.07	1600.07
0	26063	2300.07	1500.07
0	26064	2300.07	1400.07
0	26065	2300.07	1300.07
0	26285	2310.07	2100.07
0	26286	2310.07	2000.07
0	26287	2310.07	1900.07
0	26288	2310.07	1800.07
0	26289	2310.07	1700.07
0	26290	2310.07	1600.07
0	26291	2310.07	1500.07
0	26292	2310.07	1400.07
0	26293	2310.07	1300.07
0	26513	2320.07	2100.07
0	26514	2320.07	2000.07
0	26515	2320.07	1900.07
0	26516	2320.07	1800.07
0	26517	2320.07	1700.07
0	26518	2320.07	1600.07
0	26519	2320.07	1500.07
0	26520	2320.07	1400.07
0	26521	2320.07	1300.07
0	26741	2330.07	2100.07
0	26742	2330.07	2000.07
0	26743	2330.07	1900.07
0	26744	2330.07	1800.07
0	26745	2330.07	1700.07
0	26746	2330.07	1600.07
0	26747	2330.07	1500.07
0	26748	2330.07	1400.07
0	26749	2330.07	1300.07
0	26969	2340.07	2100.07
0	26970	2340.07	2000.07
0	26971	2340.07	1900.07
0	26972	2340.07	1800.07
0	26973	2340.07	1700.07
0	26974	2340.07	1600.07
0	26975	2340.07	1500.07
0	26976	2340.07	1400.07
0	26977	2340.07	1300.07
0	27197	2350.07	2100.07
0	27198	2350.07	2000.07
0	27199	2350.07	1900.07
0	27200	2350.07	1800.07
0	27201	2350.07	1700.07
0	27202	2350.07	1600.07
0	27203	2350.07	1500.07
0	27204	2350.07	1400.07
0	27205	2350.07	1300.07
0	27495	2358.07	2358.07
0	27496	2358.07	2348.07
0	27497	2358.07	2338.07
0	27498	2358.07	2328.07
0	27499	2358.07	2318.07
0	27500	2358.07	2308.07
0	27501	2358.07	2298.07
0	27502	2358.07	2288.07
0	27503	2358.07	2278.07
0	27504	2358.07	2268.07
0	27505	2358.07	2258.07
0	27506	2358.07	2248.07
0	27507	2358.07	2238.07
0	27508	2358.07	2228.07
0	27509	2358.07	2218.07
0	27510	2358.07	2208.07
0	27794	2360.07	2200.07
0	27795	2360.07	2100.07
0	27796	2360.07	2000.07
0	27797	2360.07	1900.07
0	27798	2360.07	1800.07
0	27799	2360.07	1700.07
0	27800	2360.07	1600.07
0	27801	2360.07	1500.07
0	27802	2360.07	1400.07
0	27803	2360.07	1300.07
0	28044	2370.07	2200.07
0	28045	2370.07	2100.07
0	28046	2370.07	2000.07
0	28047	2370.07	1900.07
0	28048	2370.07	1800.07
0	28049	2370.07	1700.07
0	28050	2370.07	1600.07
0	28051	2370.07	1500.07
0	28052	2370.07	1400.07
0	28053	2370.07	1300.07
0	28294	2380.07	2200.07
0	28295	2380.07	2100.07
0	28296	2380.07	2000.07
0	28297	2380.07	1900.07
0	28298	2380.07	1800.07
0	28299	2380.07	1700.07
0	28300	2380.07	1600.07
0	28301	2380.07	1500.07
0	28302	2380.07	1400.07
0	28303	2380.07	1300.07
0	28544	2390.07	2200.07
0	28545	2390.07	2100.07
0	28546	2390.07	2000.07
0	28547	2390.07	1900.07
0	28548	2390.07	1800.07
0	28549	2390.07	1700.07
0	28550	2390.07	1600.07
0	28551	2390.07	1500.07
0	28552	2390.07	1400.07
0	28553	2390.07	1300.07
0	28794	2400.07	2200.07
0	28795	2400.07	2100.07
0	28796	2400.07	2000.07
0	28797	2400.07	1900.07
0	28798	2400.07	1800.07
0	28799	2400.07	1700.07
0	28800	2400.07	1600.07
0	28801	2400.07	1500.07
0	28802	2400.07	1400.07
0	28803	2400.07	1300.07
0	29044	2410.07	2200.07
0	29045	2410.07	2100.07
0	29046	2410.07	2000.07
0	29047	2410.07	1900.07
0	29048	2410.07	1800.07
0	29049	2410.07	1700.07
0	29050	2410.07	1600.07
0	29051	2410.07	1500.07
0	29052	2410.07	1400.07
0	29053	2410.07	1300.07
0	29294	2420.07	2200.07
0	29295	2420.07	2100.07
0	29296	2420.07	2000.07
0	29297	2420.07	1900.07
0	29298	2420.07	1800.07
0	29299	2420.07	1700.07
0	29300	2420.07	1600.07
0	29301	2420.07	1500.07
0	29302	2420.07	1400.07
0	29303	2420.07	1300.07
0	29544	2430.07	2200.07
0	29545	2430.07	2100.07
0	29546	2430.07	2000.07
0	29547	2430.07	1900.07
0	29548	2430.07	1800.07
0	29549	2430.07	1700.07
0	29550	2430.07	1600.07
0	29551	2430.07	1500.07
0	29552	2430.07	1400.07
0	29553	2430.07	1300.07
0	29794	2440.07	2200.07
0	29795	2440.07	2100.07
0	29796	2440.07	2000.07
0	29797	2440.07	1900.07
0	29798	2440.07	1800.07
0	29799	2440.07	1700.07
0	29800	2440.07	1600.07
0	29801	2440.07	1500.07
0	29802	2440.07	1400.07
0	29803	2440.07	1300.07
0	30044	2450.07	2200.07
0	30045	2450.07	2100.07
0	30046	2450.07	2000.07
0	30047	2450.07	1900.07
0	30048	2450.07	1800.07
0	30049	2450.07	1700.07
0	30050	2450.07	1600.07
0	30051	2450.07	1500.07
0	30052	2450.07	1400.07
0	30053	2450.07	1300.07
0	30353	2458.07	2458.07
0	30354	2458.07	2448.07
0	30355	2458.07	2438.07
0	30356	2458.07	2428.07
0	30357	2458.07	2418.07
0	30358	2458.07	2408.07
0	30359	2458.07	2398.07
0	30360	2458.07	2388.07
0	30361	2458.07	2378.07
0	30362	2458.07	2368.07
0	30363	2458.07	2358.07
0	30364	2458.07	2348.07
0	30365	2458.07	2338.07
0	30366	2458.07	2328.07
0	30367	2458.07	2318.07
0	30368	2458.07	2308.07
0	30663	2460.07	2300.07
0	30664	2460.07	2200.07
0	30665	2460.07	2100.07
0	30666	2460.07	2000.07
0	30667	2460.07	1900.07
0	30668	2460.07	1800.07
0	30669	2460.07	1700.07
0	30670	2460.07	1600.07
0	30671	2460.07	1500.07
0	30672	2460.07	1400.07
0	30673	2460.07	1300.07
0	30935	2470.07	2300.07
0	30936	2470.07	2200.07
0	30937	2470.07	2100.07
0	30938	2470.07	2000.07
0	30939	2470.07	1900.07
0	30940	2470.07	1800.07
0	30941	2470.07	1700.07
0	30942	2470.07	1600.07
0	30943	2470.07	1500.07
0	30944	2470.07	1400.07
0	30945	2470.07	1300.07
0	31207	2480.07	2300.07
0	31208	2480.07	2200.07
0	31209	2480.07	2100.07
0	31210	2480.07	2000.07
0	31211	2480.07	1900.07
0	31212	2480.07	1800.07
0	31213	2480.07	1700.07
0	31214	2480.07	1600.07
0	31215	2480.07	1500.07
0	31216	2480.07	1400.07
0	31217	2480.07	1300.07
0	31479	2490.07	2300.07
0	31480	2490.07	2200.07
0	31481	2490.07	2100.07
0	31482	2490.07	2000.07
0	31483	2490.07	1900.07
0	31484	2490.07	1800.07
0	31485	2490.07	1700.07
0	31486	2490.07	1600.07
0	31487	2490.07	1500.07
0	31488	2490.07	1400.07
0	31489	2490.07	1300.07
0	31751	2500.07	2300.07
0	31752	2500.07	2200.07
0	31753	2500.07	2100.07
0	31754	2500.07	2000.07
0	31755	2500.07	1900.07
0	31756	2500.07	1800.07
0	31757	2500.07	1700.07
0	31758	2500.07	1600.07
0	31759	2500.07	1500.07
0	31760	2500.07	1400.07
0	31761	2500.07	1300.07
0	32023	2510.07	2300.07
0	32024	2510.07	2200.07
0	32025	2510.07	2100.07
0	32026	2510.07	2000.07
0	32027	2510.07	1900.07
0	32028	2510.07	1800.07
0	32029	2510.07	1700.07
0	32030	2510.07	1600.07
0	32031	2510.07	1500.07
0	32032	2510.07	1400.07
0	32033	2510.07	1300.07
0	32295	2520.07	2300.07
0	32296	2520.07	2200.07
0	32297	2520.07	2100.07
0	32298	2520.07	2000.07
0	32299	2520.07	1900.07
0	32300	2520.07	1800.07
0	32301	2520.07	1700.07
0	32302	2520.07	1600.07
0	32303	2520.07	1500.07
0	32304	2520.07	1400.07
0	32305	2520.07	1300.07
0	32567	2530.07	2300.07
0	32568	2530.07	2200.07
0	32569	2530.07	2100.07
0	32570	2530.07	2000.07
0	32571	2530.07	1900.07
0	32572	2530.07	1800.07
0	32573	2530.07	1700.07
0	32574	2530.07	1600.07
0	32575	2530.07	1500.07
0	32576	2530.07	1400.07
0	32577	2530.07	1300.07
0	32839	2540.07	2300.07
0	32840	2540.07	2200.07
0	32841	2540.07	2100.07
0	32842	2540.07	2000.07
0	32843	2540.07	1900.07
0	32844	2540.07	1800.07
0	32845	2540.07	1700.07
0	32846	2540.07	1600.07
0	32847	2540.07	1500.07
0	32848	2540.07	1400.07
0	32849	2540.07	1300.07
0	33111	2550.07	2300.07
0	33112	2550.07	2200.07
0	33113	2550.07	2100.07
0	33114	2550.07	2000.07
0	33115	2550.07	1900.07
0	33116	2550.07	1800.07
0	33117	2550.07	1700.07
0	33118	2550.07	1600.07
0	33119	2550.07	1500.07
0	33120	2550.07	1400.07
0	33121	2550.07	1300.07
0	33431	2558.07	2558.07
0	33432	2558.07	2548.07
0	33433	2558.07	2538.07
0	33434	2558.07	2528.07
0	33435	2558.07	2518.07
0	33436	2558.07	2508.07
0	33437	2558.07	2498.07
0	33438	2558.07	2488.07
0	33439	2558.07	2478.07
0	33440	2558.07	2468.07
0	33441	2558.07	2458.07
0	33442	2558.07	2448.07
0	33443	2558.07	2438.07
0	33444	2558.07	2428.07
0	33445	2558.07	2418.07
0	33446	2558.07	2408.07
0	33752	2560.07	2400.07
0	33753	2560.07	2300.07
0	33754	2560.07	2200.07
0	33755	2560.07	2100.07
0	33756	2560.07	2000.07
0	33757	2560.07	1900.07
0	33758	2560.07	1800.07
0	33759	2560.07	1700.07
0	33760	2560.07	1600.07
0	33761	2560.07	1500.07
0	33762	2560.07	1400.07
0	33763	2560.07	1300.07
0	34046	2570.07	2400.07
0	34047	2570.07	2300.07
0	34048	2570.07	2200.07
0	34049	2570.07	2100.07
0	34050	2570.07	2000.07
0	34051	2570.07	1900.07
0	34052	2570.07	1800.07
0	34053	2570.07	1700.07
0	34054	2570.07	1600.07
0	34055	2570.07	1500.07
0	34056	2570.07	1400.07
0	34057	2570.07	1300.07
0	34340	2580.07	2400.07
0	34341	2580.07	2300.07
0	34342	2580.07	2200.07
0	34343	2580.07	2100.07
0	34344	2580.07	2000.07
0	34345	2580.07	1900.07
0	34346	2580.07	1800.07
0	34347	2580.07	1700.07
0	34348	2580.07	1600.07
0	34349	2580.07	1500.07
0	34350	2580.07	1400.07
0	34351	2580.07	1300.07
0	34634	2590.07	2400.07
0	34635	2590.07	2300.07
0	34636	2590.07	2200.07
0	34637	2590.07	2100.07
0	34638	2590.07	2000.07
0	34639	2590.07	1900.07
0	34640	2590.07	1800.07
0	34641	2590.07	1700.07
0	34642	2590.07	1600.07
0	34643	2590.07	1500.07
0	34644	2590.07	1400.07
0	34645	2590.07	1300.07
0	34928	2600.07	2400.07
0	34929	2600.07	2300.07
0	34930	2600.07	2200.07
0	34931	2600.07	2100.07
0	34932	2600.07	2000.07
0	34933	2600.07	1900.07
0	34934	2600.07	1800.07
0	34935	2600.07	1700.07
0	34936	2600.07	1600.07
0	34937	2600.07	1500.07
0	34938	2600.07	1400.07
0	34939	2600.07	1300.07
0	35222	2610.07	2400.07
0	35223	2610.07	2300.07
0	35224	2610.07	2200.07
0	35225	2610.07	2100.07
0	35226	2610.07	2000.07
0	35227	2610.07	1900.07
0	35228	2610.07	1800.07
0	35229	2610.07	1700.07
0	35230	2610.07	1600.07
0	35231	2610.07	1500.07
0	35232	2610.07	1400.07
0	35233	2610.07	1300.07
0	35516	2620.07	2400.07
0	35517	2620.07	2300.07
0	35518	2620.07	2200.07
0	35519	2620.07	2100.07
0	35520	2620.07	2000.07
0	35521	2620.07	1900.07
0	35522	2620.07	1800.07
0	35523	2620.07	1700.07
0	35524	2620.07	1600.07
0	35525	2620.07	1500.07
0	35526	2620.07	1400.07
0	35527	2620.07	1300.07
0	35810	2630.07	2400.07
0	35811	2630.07	2300.07
0	35812	2630.07	2200.07
0	35813	2630.07	2100.07
0	35814	2630.07	2000.07
0	35815	2630.07	1900.07
0	35816	2630.07	1800.07
0	35817	2630.07	1700.07
0	35818	2630.07	1600.07
0	35819	2630.07	1500.07
0	35820	2630.07	1400.07
0	35821	2630.07	1300.07
0	36104	2640.07	2400.07
0	36105	2640.07	2300.07
0	36106	2640.07	2200.07
0	36107	2640.07	2100.07
0	36108	2640.07	2000.07
0	36109	2640.07	1900.07
0	36110	2640.07	1800.07
0	36111	2640.07	1700.07
0	36112	2640.07	1600.07
0	36113	2640.07	1500.07
0	36114	2640.07	1400.07
0	36115	2640.07	1300.07
0	36398	2650.07	2400.07
0	36399	2650.07	2300.07
0	36400	2650.07	2200.07
0	36401	2650.07	2100.07
0	36402	2650.07	2000.07
0	36403	2650.07	1900.07
0	36404	2650.07	1800.07
0	36405	2650.07	1700.07
0	36406	2650.07	1600.07
0	36407	2650.07	1500.07
0	36408	2650.07	1400.07
0	36409	2650.07	1300.07
0	36729	2658.07	2658.07
0	36730	2658.07	2648.07
0	36731	2658.07	2638.07
0	36732	2658.07	2628.07
0	36733	2658.07	2618.07
0	36734	2658.07	2608.07
0	36735	2658.07	2598.07
0	36736	2658.07	2588.07
0	36737	2658.07	2578.07
0	36738	2658.07	2568.07
0	36739	2658.07	2558.07
0	36740	2658.07	2548.07
0	36741	2658.07	2538.07
0	36742	2658.07	2528.07
0	36743	2658.07	2518.07
0	36744	2658.07	2508.07
0	37061	2660.07	2500.07
0	37062	2660.07	2400.07
0	37063	2660.07	2300.07
0	37064	2660.07	2200.07
0	37065	2660.07	2100.07
0	37066	2660.07	2000.07
0	37067	2660.07	1900.07
0	37068	2660.07	1800.07
0	37069	2660.07	1700.07
0	37070	2660.07	1600.07
0	37071	2660.07	1500.07
0	37072	2660.07	1400.07
0	37073	2660.07	1300.07
0	37377	2670.07	2500.07
0	37378	2670.07	2400.07
0	37379	2670.07	2300.07
0	37380	2670.07	2200.07
0	37381	2670.07	2100.07
0	37382	2670.07	2000.07
0	37383	2670.07	1900.07
0	37384	2670.07	1800.07
0	37385	2670.07	1700.07
0	37386	2670.07	1600.07
0	37387	2670.07	1500.07
0	37388	2670.07	1400.07
0	37389	2670.07	1300.07
0	37693	2680.07	2500.07
0	37694	2680.07	2400.07
0	37695	2680.07	2300.07
0	37696	2680.07	2200.07
0	37697	2680.07	2100.07
0	37698	2680.07	2000.07
0	37699	2680.07	1900.07
0	37700	2680.07	1800.07
0	37701	2680.07	1700.07
0	37702	2680.07	1600.07
0	37703	2680.07	1500.07
0	37704	2680.07	1400.07
0	37705	2680.07	1300.07
0	38009	2690.07	2500.07
0	38010	2690.07	2400.07
0	38011	2690.07	2300.07
0	38012	2690.07	2200.07
0	38013	2690.07	2100.07
0	38014	2690.07	2000.07
0	38015	2690.07	1900.07
0	38016	2690.07	1800.07
0	38017	2690.07	1700.07
0	38018	2690.07	1600.07
0	38019	2690.07	1500.07
0	38020	2690.07	1400.07
0	38021	2690.07	1300.07
0	38325	2700.07	2500.07
0	38326	2700.07	2400.07
0	38327	2700.07	2300.07
0	38328	2700.07	2200.07
0	38329	2700.07	2100.07
0	38330	2700.07	2000.07
0	38331	2700.07	1900.07
0	38332	2700.07	1800.07
0	38333	2700.07	1700.07
0	38334	2700.07	1600.07
0	38335	2700.07	1500.07
0	38336	2700.07	1400.07
0	38337	2700.07	1300.07
0	38641	2710.07	2500.07
0	38642	2710.07	2400.07
0	38643	2710.07	2300.07
0	38644	2710.07	2200.07
0	38645	2710.07	2100.07
0	38646	2710.07	2000.07
0	38647	2710.07	1900.07
0	38648	2710.07	1800.07
0	38649	2710.07	1700.07
0	38650	2710.07	1600.07
0	38651	2710.07	1500.07
0	38652	2710.07	1400.07
0	38653	2710.07	1300.07
0	38957	2720.07	2500.07
0	38958	2720.07	2400.07
0	38959	2720.07	2300.07
0	38960	2720.07	2200.07
0	38961	2720.07	2100.07
0	38962	2720.07	2000.07
0	38963	2720.07	1900.07
0	38964	2720.07	1800.07
0	38965	2720.07	1700.07
0	38966	2720.07	1600.07
0	38967	2720.07	1500.07
0	38968	2720.07	1400.07
0	38969	2720.07	1300.07
0	39273	2730.07	2500.07
0	39274	2730.07	2400.07
0	39275	2730.07	2300.07
0	39276	2730.07	2200.07
0	39277	2730.07	2100.07
0	39278	2730.07	2000.07
0	39279	2730.07	1900.07
0	39280	2730.07	1800.07
0	39281	2730.07	1700.07
0	39282	2730.07	1600.07
0	39283	2730.07	1500.07
0	39284	2730.07	1400.07
0	39285	2730.07	1300.07
0	39589	2740.07	2500.07
0	39590	2740.07	2400.07
0	39591	2740.07	2300.07
0	39592	2740.07	2200.07
0	39593	2740.07	2100.07
0	39594	2740.07	2000.07
0	39595	2740.07	1900.07
0	39596	2740.07	1800.07
0	39597	2740.07	1700.07
0	39598	2740.07	1600.07
0	39599	2740.07	1500.07
0	39600	2740.07	1400.07
0	39601	2740.07	1300.07
0	39905	2750.07	2500.07
0	39906	2750.07	2400.07
0	39907	2750.07	2300.07
0	39908	2750.07	2200.07
0	39909	2750.07	2100.07
0	39910	2750.07	2000.07
0	39911	2750.07	1900.07
0	39912	2750.07	1800.07
0	39913	2750.07	1700.07
0	39914	2750.07	1600.07
0	39915	2750.07	1500.07
0	39916	2750.07	1400.07
0	39917	2750.07	1300.07
0	40330	2758.07	2758.07
0	40331	2758.07	2748.07
0	40332	2758.07	2738.07
0	40333	2758.07	2728.07
0	40334	2758.07	2718.07
0	40335	2758.07	2708.07
0	40336	2758.07	2698.07
0	40337	2758.07	2688.07
0	40338	2758.07	2678.07
0	40339	2758.07	2668.07
0	40340	2758.07	2658.07
0	40341	2758.07	2648.07
0	40342	2758.07	2638.07
0	40343	2758.07	2628.07
0	40344	2758.07	2618.07
0	40345	2758.07	2608.07
0	40795	2760.07	2600.07
0	40796	2760.07	2500.07
0	40797	2760.07	2400.07
0	40798	2760.07	2300.07
0	40799	2760.07	2200.07
0	40800	2760.07	2100.07
0	40801	2760.07	2000.07
0	40802	2760.07	1900.07
0	40803	2760.07	1800.07
0	40804	2760.07	1700.07
0	40805	2760.07	1600.07
0	40806	2760.07	1500.07
0	40807	2760.07	1400.07
0	40808	2760.07	1300.07
0	41150	2770.07	2600.07
0	41151	2770.07	2500.07
0	41152	2770.07	2400.07
0	41153	2770.07	2300.07
0	41154	2770.07	2200.07
0	41155	2770.07	2100.07
0	41156	2770.07	2000.07
0	41157	2770.07	1900.07
0	41158	2770.07	1800.07
0	41159	2770.07	1700.07
0	41160	2770.07	1600.07
0	41161	2770.07	1500.07
0	41162	2770.07	1400.07
0	41163	2770.07	1300.07
0	41505	2780.07	2600.07
0	41506	2780.07	2500.07
0	41507	2780.07	2400.07
0	41508	2780.07	2300.07
0	41509	2780.07	2200.07
0	41510	2780.07	2100.07
0	41511	2780.07	2000.07
0	41512	2780.07	1900.07
0	41513	2780.07	1800.07
0	41514	2780.07	1700.07
0	41515	2780.07	1600.07
0	41516	2780.07	1500.07
0	41517	2780.07	1400.07
0	41518	2780.07	1300.07
0	41860	2790.07	2600.07
0	41861	2790.07	2500.07
0	41862	2790.07	2400.07
0	41863	2790.07	2300.07
0	41864	2790.07	2200.07
0	41865	2790.07	2100.07
0	41866	2790.07	2000.07
0	41867	2790.07	1900.07
0	41868	2790.07	1800.07
0	41869	2790.07	1700.07
0	41870	2790.07	1600.07
0	41871	2790.07	1500.07
0	41872	2790.07	1400.07
0	41873	2790.07	1300.07
0	42215	2800.07	2600.07
0	42216	2800.07	2500.07
0	42217	2800.07	2400.07
0	42218	2800.07	2300.07
0	42219	2800.07	2200.07
0	42220	2800.07	2100.07
0	42221	2800.07	2000.07
0	42222	2800.07	1900.07
0	42223	2800.07	1800.07
0	42224	2800.07	1700.07
0	42225	2800.07	1600.07
0	42226	2800.07	1500.07
0	42227	2800.07	1400.07
0	42228	2800.07	1300.07
0	42570	2810.07	2600.07
0	42571	2810.07	2500.07
0	42572	2810.07	2400.07
0	42573	2810.07	2300.07
0	42574	2810.07	2200.07
0	42575	2810.07	2100.07
0	42576	2810.07	2000.07
0	42577	2810.07	1900.07
0	42578	2810.07	1800.07
0	42579	2810.07	1700.07
0	42580	2810.07	1600.07
0	42581	2810.07	1500.07
0	42582	2810.07	1400.07
0	42583	2810.07	1300.07
0	42925	2820.07	2600.07
0	42926	2820.07	2500.07
0	42927	2820.07	2400.07
0	42928	2820.07	2300.07
0	42929	2820.07	2200.07
0	42930	2820.07	2100.07
0	42931	2820.07	2000.07
0	42932	2820.07	1900.07
0	42933	2820.07	1800.07
0	42934	2820.07	1700.07
0	42935	2820.07	1600.07
0	42936	2820.07	1500.07
0	42937	2820.07	1400.07
0	42938	2820.07	1300.07
0	43280	2830.07	2600.07
0	43281	2830.07	2500.07
0	43282	2830.07	2400.07
0	43283	2830.07	2300.07
0	43284	2830.07	2200.07
0	43285	2830.07	2100.07
0	43286	2830.07	2000.07
0	43287	2830.07	1900.07
0	43288	2830.07	1800.07
0	43289	2830.07	1700.07
0	43290	2830.07	1600.07
0	43291	2830.07	1500.07
0	43292	2830.07	1400.07
0	43293	2830.07	1300.07
0	43635	2840.07	2600.07
0	43636	2840.07	2500.07
0	43637	2840.07	2400.07
0	43638	2840.07	2300.07
0	43639	2840.07	2200.07
0	43640	2840.07	2100.07
0	43641	2840.07	2000.07
0	43642	2840.07	1900.07
0	43643	2840.07	1800.07
0	43644	2840.07	1700.07
0	43645	2840.07	1600.07
0	43646	2840.07	1500.07
0	43647	2840.07	1400.07
0	43648	2840.07	1300.07
0	43990	2850.07	2600.07
0	43991	2850.07	2500.07
0	43992	2850.07	2400.07
0	43993	2850.07	2300.07
0	43994	2850.07	2200.07
0	43995	2850.07	2100.07
0	43996	2850.07	2000.07
0	43997	2850.07	1900.07
0	43998	2850.07	1800.07
0	43999	2850.07	1700.07
0	44000	2850.07	1600.07
0	44001	2850.07	1500.07
0	44002	2850.07	1400.07
0	44003	2850.07	1300.07
0	44435	2858.07	2858.07
0	44436	2858.07	2848.07
0	44437	2858.07	2838.07
0	44438	2858.07	2828.07
0	44439	2858.07	2818.07
0	44440	2858.07	2808.07
0	44441	2858.07	2798.07
0	44442	2858.07	2788.07
0	44443	2858.07	2778.07
0	44444	2858.07	2768.07
0	44445	2858.07	2758.07
0	44446	2858.07	2748.07
0	44447	2858.07	2738.07
0	44448	2858.07	2728.07
0	44449	2858.07	2718.07
0	44450	2858.07	2708.07
0	44916	2860.07	2700.07
0	44917	2860.07	2600.07
0	44918	2860.07	2500.07
0	44919	2860.07	2400.07
0	44920	2860.07	2300.07
0	44921	2860.07	2200.07
0	44922	2860.07	2100.07
0	44923	2860.07	2000.07
0	44924	2860.07	1900.07
0	44925	2860.07	1800.07
0	44926	2860.07	1700.07
0	44927	2860.07	1600.07
0	44928	2860.07	1500.07
0	44929	2860.07	1400.07
0	44930	2860.07	1300.07
0	45305	2870.07	2700.07
0	45306	2870.07	2600.07
0	45307	2870.07	2500.07
0	45308	2870.07	2400.07
0	45309	2870.07	2300.07
0	45310	2870.07	2200.07
0	45311	2870.07	2100.07
0	45312	2870.07	2000.07
0	45313	2870.07	1900.07
0	45314	2870.07	1800.07
0	45315	2870.07	1700.07
0	45316	2870.07	1600.07
0	45317	2870.07	1500.07
0	45318	2870.07	1400.07
0	45319	2870.07	1300.07
0	45649	2880.07	2700.07
0	45650	2880.07	2600.07
0	45651	2880.07	2500.07
0	45652	2880.07	2400.07
0	45653	2880.07	2300.07
0	45654	2880.07	2200.07
0	45655	2880.07	2100.07
0	45656	2880.07	2000.07
0	45657	2880.07	1900.07
0	45658	2880.07	1800.07
0	45659	2880.07	1700.07
0	45660	2880.07	1600.07
0	45661	2880.07	1500.07
0	45662	2880.07	1400.07
0	45663	2880.07	1300.07
0	45993	2890.07	2700.07
0	45994	2890.07	2600.07
0	45995	2890.07	2500.07
0	45996	2890.07	2400.07
0	45997	2890.07	2300.07
0	45998	2890.07	2200.07
0	45999	2890.07	2100.07
0	46000	2890.07	2000.07
0	46001	2890.07	1900.07
0	46002	2890.07	1800.07
0	46003	2890.07	1700.07
0	46004	2890.07	1600.07
0	46005	2890.07	1500.07
0	46006	2890.07	1400.07
0	46007	2890.07	1300.07
0	46337	2900.07	2700.07
0	46338	2900.07	2600.07
0	46339	2900.07	2500.07
0	46340	2900.07	2400.07
0	46341	2900.07	2300.07
0	46342	2900.07	2200.07
0	46343	2900.07	2100.07
0	46344	2900.07	2000.07
0	46345	2900.07	1900.07
0	46346	2900.07	1800.07
0	46347	2900.07	1700.07
0	46348	2900.07	1600.07
0	46349	2900.07	1500.07
0	46350	2900.07	1400.07
0	46351	2900.07	1300.07
0	46681	2910.07	2700.07
0	46682	2910.07	2600.07
0	46683	2910.07	2500.07
0	46684	2910.07	2400.07
0	46685	2910.07	2300.07
0	46686	2910.07	2200.07
0	46687	2910.07	2100.07
0	46688	2910.07	2000.07
0	46689	2910.07	1900.07
0	46690	2910.07	1800.07
0	46691	2910.07	1700.07
0	46692	2910.07	1600.07
0	46693	2910.07	1500.07
0	46694	2910.07	1400.07
0	46695	2910.07	1300.07
0	47025	2920.07	2700.07
0	47026	2920.07	2600.07
0	47027	2920.07	2500.07
0	47028	2920.07	2400.07
0	47029	2920.07	2300.07
0	47030	2920.07	2200.07
0	47031	2920.07	2100.07
0	47032	2920.07	2000.07
0	47033	2920.07	1900.07
0	47034	2920.07	1800.07
0	47035	2920.07	1700.07
0	47036	2920.07	1600.07
0	47037	2920.07	1500.07
0	47038	2920.07	1400.07
0	47039	2920.07	1300.07
0	47369	2930.07	2700.07
0	47370	2930.07	2600.07
0	47371	2930.07	2500.07
0	47372	2930.07	2400.07
0	47373	2930.07	2300.07
0	47374	2930.07	2200.07
0	47375	2930.07	2100.07
0	47376	2930.07	2000.07
0	47377	2930.07	1900.07
0	47378	2930.07	1800.07
0	47379	2930.07	1700.07
0	47380	2930.07	1600.07
0	47381	2930.07	1500.07
0	47382	2930.07	1400.07
0	47383	2930.07	1300.07
0	47713	2940.07	2700.07
0	47714	2940.07	2600.07
0	47715	2940.07	2500.07
0	47716	2940.07	2400.07
0	47717	2940.07	2300.07
0	47718	2940.07	2200.07
0	47719	2940.07	2100.07
0	47720	2940.07	2000.07
0	47721	2940.07	1900.07
0	47722	2940.07	1800.07
0	47723	2940.07	1700.07
0	47724	2940.07	1600.07
0	47725	2940.07	1500.07
0	47726	2940.07	1400.07
0	47727	2940.07	1300.07
0	48057	2950.07	2700.07
0	48058	2950.07	2600.07
0	48059	2950.07	2500.07
0	48060	2950.07	2400.07
0	48061	2950.07	2300.07
0	48062	2950.07	2200.07
0	48063	2950.07	2100.07
0	48064	2950.07	2000.07
0	48065	2950.07	1900.07
0	48066	2950.07	1800.07
0	48067	2950.07	1700.07
0	48068	2950.07	1600.07
0	48069	2950.07	1500.07
0	48070	2950.07	1400.07
0	48071	2950.07	1300.07
0	48472	2958.07	2958.07
0	48473	2958.07	2948.07
0	48474	2958.07	2938.07
0	48475	2958.07	2928.07
0	48476	2958.07	2918.07
0	48477	2958.07	2908.07
0	48478	2958.07	2898.07
0	48479	2958.07	2888.07
0	48480	2958.07	2878.07
0	48481	2958.07	2868.07
0	48482	2958.07	2858.07
0	48483	2958.07	2848.07
0	48484	2958.07	2838.07
0	48485	2958.07	2828.07
0	48486	2958.07	2818.07
0	48487	2958.07	2808.07
0	48921	2960.07	2800.07
0	48922	2960.07	2700.07
0	48923	2960.07	2600.07
0	48924	2960.07	2500.07
0	48925	2960.07	2400.07
0	48926	2960.07	2300.07
0	48927	2960.07	2200.07
0	48928	2960.07	2100.07
0	48929	2960.07	2000.07
0	48930	2960.07	1900.07
0	48931	2960.07	1800.07
0	48932	2960.07	1700.07
0	48933	2960.07	1600.07
0	48934	2960.07	1500.07
0	48935	2960.07	1400.07
0	48936	2960.07	1300.07
0	49296	2970.07	2800.07
0	49297	2970.07	2700.07
0	49298	2970.07	2600.07
0	49299	2970.07	2500.07
0	49300	2970.07	2400.07
0	49301	2970.07	2300.07
0	49302	2970.07	2200.07
0	49303	2970.07	2100.07
0	49304	2970.07	2000.07
0	49305	2970.07	1900.07
0	49306	2970.07	1800.07
0	49307	2970.07	1700.07
0	49308	2970.07	1600.07
0	49309	2970.07	1500.07
0	49310	2970.07	1400.07
0	49311	2970.07	1300.07
0	49671	2980.07	2800.07
0	49672	2980.07	2700.07
0	49673	2980.07	2600.07
0	49674	2980.07	2500.07
0	49675	2980.07	2400.07
0	49676	2980.07	2300.07
0	49677	2980.07	2200.07
0	49678	2980.07	2100.07
0	49679	2980.07	2000.07
0	49680	2980.07	1900.07
0	49681	2980.07	1800.07
0	49682	2980.07	1700.07
0	49683	2980.07	1600.07
0	49684	2980.07	1500.07
0	49685	2980.07	1400.07
0	49686	2980.07	1300.07
0	50046	2990.07	2800.07
0	50047	2990.07	2700.07
0	50048	2990.07	2600.07
0	50049	2990.07	2500.07
0	50050	2990.07	2400.07
0	50051	2990.07	2300.07
0	50052	2990.07	2200.07
0	50053	2990.07	2100.07
0	50054	2990.07	2000.07
0	50055	2990.07	1900.07
0	50056	2990.07	1800.07
0	50057	2990.07	1700.07
0	50058	2990.07	1600.07
0	50059	2990.07	1500.07
0	50060	2990.07	1400.07
0	50061	2990.07	1300.07
0	50421	3000.07	2800.07
0	50422	3000.07	2700.07
0	50423	3000.07	2600.07
0	50424	3000.07	2500.07
0	50425	3000.07	2400.07
0	50426	3000.07	2300.07
0	50427	3000.07	2200.07
0	50428	3000.07	2100.07
0	50429	3000.07	2000.07
0	50430	3000.07	1900.07
0	50431	3000.07	1800.07
0	50432	3000.07	1700.07
0	50433	3000.07	1600.07
0	50434	3000.07	1500.07
0	50435	3000.07	1400.07
0	50436	3000.07	1300.07
0	50796	3010.07	2800.07
0	50797	3010.07	2700.07
0	50798	3010.07	2600.07
0	50799	3010.07	2500.07
0	50800	3010.07	2400.07
0	50801	3010.07	2300.07
0	50802	3010.07	2200.07
0	50803	3010.07	2100.07
0	50804	3010.07	2000.07
0	50805	3010.07	1900.07
0	50806	3010.07	1800.07
0	50807	3010.07	1700.07
0	50808	3010.07	1600.07
0	50809	3010.07	1500.07
0	50810	3010.07	1400.07
0	50811	3010.07	1300.07
0	51171	3020.07	2800.07
0	51172	3020.07	2700.07
0	51173	3020.07	2600.07
0	51174	3020.07	2500.07
0	51175	3020.07	2400.07
0	51176	3020.07	2300.07
0	51177	3020.07	2200.07
0	51178	3020.07	2100.07
0	51179	3020.07	2000.07
0	51180	3020.07	1900.07
0	51181	3020.07	1800.07
0	51182	3020.07	1700.07
0	51183	3020.07	1600.07
0	51184	3020.07	1500.07
0	51185	3020.07	1400.07
0	51186	3020.07	1300.07
0	51546	3030.07	2800.07
0	51547	3030.07	2700.07
0	51548	3030.07	2600.07
0	51549	3030.07	2500.07
0	51550	3030.07	2400.07
0	51551	3030.07	2300.07
0	51552	3030.07	2200.07
0	51553	3030.07	2100.07
0	51554	3030.07	2000.07
0	51555	3030.07	1900.07
0	51556	3030.07	1800.07
0	51557	3030.07	1700.07
0	51558	3030.07	1600.07
0	51559	3030.07	1500.07
0	51560	3030.07	1400.07
0	51561	3030.07	1300.07
0	51921	3040.07	2800.07
0	51922	3040.07	2700.07
0	51923	3040.07	2600.07
0	51924	3040.07	2500.07
0	51925	3040.07	2400.07
0	51926	3040.07	2300.07
0	51927	3040.07	2200.07
0	51928	3040.07	2100.07
0	51929	3040.07	2000.07
0	51930	3040.07	1900.07
0	51931	3040.07	1800.07
0	51932	3040.07	1700.07
0	51933	3040.07	1600.07
0	51934	3040.07	1500.07
0	51935	3040.07	1400.07
0	51936	3040.07	1300.07
0	52296	3050.07	2800.07
0	52297	3050.07	2700.07
0	52298	3050.07	2600.07
0	52299	3050.07	2500.07
0	52300	3050.07	2400.07
0	52301	3050.07	2300.07
0	52302	3050.07	2200.07
0	52303	3050.07	2100.07
0	52304	3050.07	2000.07
0	52305	3050.07	1900.07
0	52306	3050.07	1800.07
0	52307	3050.07	1700.07
0	52308	3050.07	1600.07
0	52309	3050.07	1500.07
0	52310	3050.07	1400.07
0	52311	3050.07	1300.07
0	52729	3058.07	3058.07
0	52730	3058.07	3048.07
0	52731	3058.07	3038.07
0	52732	3058.07	3028.07
0	52733	3058.07	3018.07
0	52734	3058.07	3008.07
0	52735	3058.07	2998.07
0	52736	3058.07	2988.07
0	52737	3058.07	2978.07
0	52738	3058.07	2968.07
0	52739	3058.07	2958.07
0	52740	3058.07	2948.07
0	52741	3058.07	2938.07
0	52742	3058.07	2928.07
0	52743	3058.07	2918.07
0	52744	3058.07	2908.07
0	53191	3060.07	2900.07
0	53192	3060.07	2800.07
0	53193	3060.07	2700.07
0	53194	3060.07	2600.07
0	53195	3060.07	2500.07
0	53196	3060.07	2400.07
0	53197	3060.07	2300.07
0	53198	3060.07	2200.07
0	53199	3060.07	2100.07
0	53200	3060.07	2000.07
0	53201	3060.07	1900.07
0	53202	3060.07	1800.07
0	53203	3060.07	1700.07
0	53204	3060.07	1600.07
0	53205	3060.07	1500.07
0	53206	3060.07	1400.07
0	53207	3060.07	1300.07
0	53597	3070.07	2900.07
0	53598	3070.07	2800.07
0	53599	3070.07	2700.07
0	53600	3070.07	2600.07
0	53601	3070.07	2500.07
0	53602	3070.07	2400.07
0	53603	3070.07	2300.07
0	53604	3070.07	2200.07
0	53605	3070.07	2100.07
0	53606	3070.07	2000.07
0	53607	3070.07	1900.07
0	53608	3070.07	1800.07
0	53609	3070.07	1700.07
0	53610	3070.07	1600.07
0	53611	3070.07	1500.07
0	53612	3070.07	1400.07
0	53613	3070.07	1300.07
0	54003	3080.07	2900.07
0	54004	3080.07	2800.07
0	54005	3080.07	2700.07
0	54006	3080.07	2600.07
0	54007	3080.07	2500.07
0	54008	3080.07	2400.07
0	54009	3080.07	2300.07
0	54010	3080.07	2200.07
0	54011	3080.07	2100.07
0	54012	3080.07	2000.07
0	54013	3080.07	1900.07
0	54014	3080.07	1800.07
0	54015	3080.07	1700.07
0	54016	3080.07	1600.07
0	54017	3080.07	1500.07
0	54018	3080.07	1400.07
0	54019	3080.07	1300.07
0	54409	3090.07	2900.07
0	54410	3090.07	2800.07
0	54411	3090.07	2700.07
0	54412	3090.07	2600.07
0	54413	3090.07	2500.07
0	54414	3090.07	2400.07
0	54415	3090.07	2300.07
0	54416	3090.07	2200.07
0	54417	3090.07	2100.07
0	54418	3090.07	2000.07
0	54419	3090.07	1900.07
0	54420	3090.07	1800.07
0	54421	3090.07	1700.07
0	54422	3090.07	1600.07
0	54423	3090.07	1500.07
0	54424	3090.07	1400.07
0	54425	3090.07	1300.07
0	54815	3100.07	2900.07
0	54816	3100.07	2800.07
0	54817	3100.07	2700.07
0	54818	3100.07	2600.07
0	54819	3100.07	2500.07
0	54820	3100.07	2400.07
0	54821	3100.07	2300.07
0	54822	3100.07	2200.07
0	54823	3100.07	2100.07
0	54824	3100.07	2000.07
0	54825	3100.07	1900.07
0	54826	3100.07	1800.07
0	54827	3100.07	1700.07
0	54828	3100.07	1600.07
0	54829	3100.07	1500.07
0	54830	3100.07	1400.07
0	54831	3100.07	1300.07
0	55221	3110.07	2900.07
0	55222	3110.07	2800.07
0	55223	3110.07	2700.07
0	55224	3110.07	2600.07
0	55225	3110.07	2500.07
0	55226	3110.07	2400.07
0	55227	3110.07	2300.07
0	55228	3110.07	2200.07
0	55229	3110.07	2100.07
0	55230	3110.07	2000.07
0	55231	3110.07	1900.07
0	55232	3110.07	1800.07
0	55233	3110.07	1700.07
0	55234	3110.07	1600.07
0	55235	3110.07	1500.07
0	55236	3110.07	1400.07
0	55237	3110.07	1300.07
0	55627	3120.07	2900.07
0	55628	3120.07	2800.07
0	55629	3120.07	2700.07
0	55630	3120.07	2600.07
0	55631	3120.07	2500.07
0	55632	3120.07	2400.07
0	55633	3120.07	2300.07
0	55634	3120.07	2200.07
0	55635	3120.07	2100.07
0	55636	3120.07	2000.07
0	55637	3120.07	1900.07
0	55638	3120.07	1800.07
0	55639	3120.07	1700.07
0	55640	3120.07	1600.07
0	55641	3120.07	1500.07
0	55642	3120.07	1400.07
0	55643	3120.07	1300.07
0	56033	3130.07	2900.07
0	56034	3130.07	2800.07
0	56035	3130.07	2700.07
0	56036	3130.07	2600.07
0	56037	3130.07	2500.07
0	56038	3130.07	2400.07
0	56039	3130.07	2300.07
0	56040	3130.07	2200.07
0	56041	3130.07	2100.07
0	56042	3130.07	2000.07
0	56043	3130.07	1900.07
0	56044	3130.07	1800.07
0	56045	3130.07	1700.07
0	56046	3130.07	1600.07
0	56047	3130.07	1500.07
0	56048	3130.07	1400.07
0	56049	3130.07	1300.07
0	56439	3140.07	2900.07
0	56440	3140.07	2800.07
0	56441	3140.07	2700.07
0	56442	3140.07	2600.07
0	56443	3140.07	2500.07
0	56444	3140.07	2400.07
0	56445	3140.07	2300.07
0	56446	3140.07	2200.07
0	56447	3140.07	2100.07
0	56448	3140.07	2000.07
0	56449	3140.07	1900.07
0	56450	3140.07	1800.07
0	56451	3140.07	1700.07
0	56452	3140.07	1600.07
0	56453	3140.07	1500.07
0	56454	3140.07	1400.07
0	56455	3140.07	1300.07
0	56845	3150.07	2900.07
0	56846	3150.07	2800.07
0	56847	3150.07	2700.07
0	56848	3150.07	2600.07
0	56849	3150.07	2500.07
0	56850	3150.07	2400.07
0	56851	3150.07	2300.07
0	56852	3150.07	2200.07
0	56853	3150.07	2100.07
0	56854	3150.07	2000.07
0	56855	3150.07	1900.07
0	56856	3150.07	1800.07
0	56857	3150.07	1700.07
0	56858	3150.07	1600.07
0	56859	3150.07	1500.07
0	56860	3150.07	1400.07
0	56861	3150.07	1300.07
0	57296	3158.07	3158.07
0	57297	3158.07	3148.07
0	57298	3158.07	3138.07
0	57299	3158.07	3128.07
0	57300	3158.07	3118.07
0	57301	3158.07	3108.07
0	57302	3158.07	3098.07
0	57303	3158.07	3088.07
0	57304	3158.07	3078.07
0	57305	3158.07	3068.07
0	57306	3158.07	3058.07
0	57307	3158.07	3048.07
0	57308	3158.07	3038.07
0	57309	3158.07	3028.07
0	57310	3158.07	3018.07
0	57311	3158.07	3008.07
0	57771	3160.07	3000.07
0	57772	3160.07	2900.07
0	57773	3160.07	2800.07
0	57774	3160.07	2700.07
0	57775	3160.07	2600.07
0	57776	3160.07	2500.07
0	57777	3160.07	2400.07
0	57778	3160.07	2300.07
0	57779	3160.07	2200.07
0	57780	3160.07	2100.07
0	57781	3160.07	2000.07
0	57782	3160.07	1900.07
0	57783	3160.07	1800.07
0	57784	3160.07	1700.07
0	57785	3160.07	1600.07
0	57786	3160.07	1500.07
0	57787	3160.07	1400.07
0	57788	3160.07	1300.07
0	58208	3170.07	3000.07
0	58209	3170.07	2900.07
0	58210	3170.07	2800.07
0	58211	3170.07	2700.07
0	58212	3170.07	2600.07
0	58213	3170.07	2500.07
0	58214	3170.07	2400.07
0	58215	3170.07	2300.07
0	58216	3170.07	2200.07
0	58217	3170.07	2100.07
0	58218	3170.07	2000.07
0	58219	3170.07	1900.07
0	58220	3170.07	1800.07
0	58221	3170.07	1700.07
0	58222	3170.07	1600.07
0	58223	3170.07	1500.07
0	58224	3170.07	1400.07
0	58225	3170.07	1300.07
0	58645	3180.07	3000.07
0	58646	3180.07	2900.07
0	58647	3180.07	2800.07
0	58648	3180.07	2700.07
0	58649	3180.07	2600.07
0	58650	3180.07	2500.07
0	58651	3180.07	2400.07
0	58652	3180.07	2300.07
0	58653	3180.07	2200.07
0	58654	3180.07	2100.07
0	58655	3180.07	2000.07
0	58656	3180.07	1900.07
0	58657	3180.07	1800.07
0	58658	3180.07	1700.07
0	58659	3180.07	1600.07
0	58660	3180.07	1500.07
0	58661	3180.07	1400.07
0	58662	3180.07	1300.07
0	59082	3190.07	3000.07
0	59083	3190.07	2900.07
0	59084	3190.07	2800.07
0	59085	3190.07	2700.07
0	59086	3190.07	2600.07
0	59087	3190.07	2500.07
0	59088	3190.07	2400.07
0	59089	3190.07	2300.07
0	59090	3190.07	2200.07
0	59091	3190.07	2100.07
0	59092	3190.07	2000.07
0	59093	3190.07	1900.07
0	59094	3190.07	1800.07
0	59095	3190.07	1700.07
0	59096	3190.07	1600.07
0	59097	3190.07	1500.07
0	59098	3190.07	1400.07
0	59099	3190.07	1300.07
0	59519	3200.07	3000.07
0	59520	3200.07	2900.07
0	59521	3200.07	2800.07
0	59522	3200.07	2700.07
0	59523	3200.07	2600.07
0	59524	3200.07	2500.07
0	59525	3200.07	2400.07
0	59526	3200.07	2300.07
0	59527	3200.07	2200.07
0	59528	3200.07	2100.07
0	59529	3200.07	2000.07
0	59530	3200.07	1900.07
0	59531	3200.07	1800.07
0	59532	3200.07	1700.07
0	59533	3200.07	1600.07
0	59534	3200.07	1500.07
0	59535	3200.07	1400.07
0	59536	3200.07	1300.07
0	59956	3210.07	3000.07
0	59957	3210.07	2900.07
0	59958	3210.07	2800.07
0	59959	3210.07	2700.07
0	59960	3210.07	2600.07
0	59961	3210.07	2500.07
0	59962	3210.07	2400.07
0	59963	3210.07	2300.07
0	59964	3210.07	2200.07
0	59965	3210.07	2100.07
0	59966	3210.07	2000.07
0	59967	3210.07	1900.07
0	59968	3210.07	1800.07
0	59969	3210.07	1700.07
0	59970	3210.07	1600.07
0	59971	3210.07	1500.07
0	59972	3210.07	1400.07
0	59973	3210.07	1300.07
0	60393	3220.07	3000.07
0	60394	3220.07	2900.07
0	60395	3220.07	2800.07
0	60396	3220.07	2700.07
0	60397	3220.07	2600.07
0	60398	3220.07	2500.07
0	60399	3220.07	2400.07
0	60400	3220.07	2300.07
0	60401	3220.07	2200.07
0	60402	3220.07	2100.07
0	60403	3220.07	2000.07
0	60404	3220.07	1900.07
0	60405	3220.07	1800.07
0	60406	3220.07	1700.07
0	60407	3220.07	1600.07
0	60408	3220.07	1500.07
0	60409	3220.07	1400.07
0	60410	3220.07	1300.07
0	60830	3230.07	3000.07
0	60831	3230.07	2900.07
0	60832	3230.07	2800.07
0	60833	3230.07	2700.07
0	60834	3230.07	2600.07
0	60835	3230.07	2500.07
0	60836	3230.07	2400.07
0	60837	3230.07	2300.07
0	60838	3230.07	2200.07
0	60839	3230.07	2100.07
0	60840	3230.07	2000.07
0	60841	3230.07	1900.07
0	60842	3230.07	1800.07
0	60843	3230.07	1700.07
0	60844	3230.07	1600.07
0	60845	3230.07	1500.07
0	60846	3230.07	1400.07
0	60847	3230.07	1300.07
0	61267	3240.07	3000.07
0	61268	3240.07	2900.07
0	61269	3240.07	2800.07
0	61270	3240.07	2700.07
0	61271	3240.07	2600.07
0	61272	3240.07	2500.07
0	61273	3240.07	2400.07
0	61274	3240.07	2300.07
0	61275	3240.07	2200.07
0	61276	3240.07	2100.07
0	61277	3240.07	2000.07
0	61278	3240.07	1900.07
0	61279	3240.07	1800.07
0	61280	3240.07	1700.07
0	61281	3240.07	1600.07
0	61282	3240.07	1500.07
0	61283	3240.07	1400.07
0	61284	3240.07	1300.07
0	61704	3250.07	3000.07
0	61705	3250.07	2900.07
0	61706	3250.07	2800.07
0	61707	3250.07	2700.07
0	61708	3250.07	2600.07
0	61709	3250.07	2500.07
0	61710	3250.07	2400.07
0	61711	3250.07	2300.07
0	61712	3250.07	2200.07
0	61713	3250.07	2100.07
0	61714	3250.07	2000.07
0	61715	3250.07	1900.07
0	61716	3250.07	1800.07
0	61717	3250.07	1700.07
0	61718	3250.07	1600.07
0	61719	3250.07	1500.07
0	61720	3250.07	1400.07
0	61721	3250.07	1300.07
0	82264	4560.09	1300.09
0	82307	4570.09	1300.09
0	82350	4580.09	1300.09
0	82393	4590.09	1300.09
0	82436	4600.09	1300.09
0	82479	4610.09	1300.09
0	82740	4620.09	1300.09
0	82789	4630.09	1300.09
0	82838	4640.09	1300.09
0	132137	5950.15	2600.15
0	132138	5950.15	2690.15
0	132139	5950.15	2590.15
0	132140	5950.15	2680.15
0	132141	5950.15	2580.15
0	132142	5950.15	2670.15
0	132143	5950.15	2570.15
0	132144	5950.15	2660.15
0	132145	5950.15	2560.15
0	132146	5950.15	2650.15
0	132147	5950.15	2550.15
0	132148	5950.15	2640.15
0	132149	5950.15	2540.15
0	132150	5950.15	2630.15
0	132151	5950.15	2530.15
0	132152	5950.15	2620.15
0	132153	5950.15	2520.15
0	132154	5950.15	2610.15
0	132155	5950.15	2510.15
0	132156	5950.15	2500.15
0	132157	5950.15	2490.15
0	132158	5950.15	2480.15
0	132159	5950.15	2470.15
0	132160	5950.15	2460.15
0	132161	5950.15	2450.15
0	132162	5950.15	2440.15
0	132163	5950.15	2430.15
0	132164	5950.15	2420.15
0	132165	5950.15	2410.15
0	132166	5950.15	2400.15
0	132167	5950.15	2390.15
0	132168	5950.15	2380.15
0	132169	5950.15	2370.15
0	132170	5950.15	2360.15
0	132171	5950.15	2350.15
0	132172	5950.15	2340.15
0	132173	5950.15	2330.15
0	132174	5950.15	2320.15
0	132175	5950.15	2310.15
0	132176	5950.15	2300.15
0	132177	5950.15	2290.15
0	132178	5950.15	2280.15
0	132179	5950.15	2270.15
0	132180	5950.15	2260.15
0	132181	5950.15	2250.15
0	132182	5950.15	2240.15
0	132183	5950.15	2230.15
0	132184	5950.15	2220.15
0	132185	5950.15	2210.15
0	132186	5950.15	2200.15
0	132187	5950.15	2190.15
0	132188	5950.15	2180.15
0	132189	5950.15	2170.15
0	132190	5950.15	2160.15
0	132191	5950.15	2150.15
0	132192	5950.15	2140.15
0	132193	5950.15	2130.15
0	132194	5950.15	2120.15
0	132195	5950.15	2110.15
0	132196	5950.15	2100.15
0	132197	5950.15	2090.15
0	132198	5950.15	2080.15
0	132199	5950.15	2070.15
0	132200	5950.15	2060.15
0	132201	5950.15	2050.15
0	132202	5950.15	2040.15
0	132203	5950.15	5950.15
0	132204	5950.15	5940.15
0	132205	5950.15	5930.15
0	132206	5950.15	5920.15
0	132207	5950.15	5910.15
0	132208	5950.15	5900.15
0	132209	5950.15	5890.15
0	132210	5950.15	5880.15
0	132211	5950.15	5870.15
0	132212	5950.15	5860.15
0	132213	5950.15	5850.15
0	132214	5950.15	5840.15
0	132215	5950.15	5830.15
0	132216	5950.15	5820.15
0	132217	5950.15	5810.15
0	132218	5950.15	5800.15
0	132219	5950.15	5790.15
0	132220	5950.15	5690.15
0	132221	5950.15	5590.15
0	132222	5950.15	5490.15
0	132223	5950.15	5390.15
0	132224	5950.15	5290.15
0	132225	5950.15	5190.15
0	132226	5950.15	5090.15
0	132227	5950.15	4990.15
0	132228	5950.15	4890.15
0	132229	5950.15	4790.15
0	132230	5950.15	4690.15
0	132231	5950.15	4590.15
0	132232	5950.15	4490.15
0	132233	5950.15	4390.15
0	132234	5950.15	4290.15
0	132235	5950.15	4190.15
0	132236	5950.15	4090.15
0	132237	5950.15	3990.15
0	132238	5950.15	5780.15
0	132239	5950.15	5680.15
0	132240	5950.15	5580.15
0	132241	5950.15	5480.15
0	132242	5950.15	5380.15
0	132243	5950.15	5280.15
0	132244	5950.15	5180.15
0	132245	5950.15	5080.15
0	132246	5950.15	4980.15
0	132247	5950.15	4880.15
0	132248	5950.15	4780.15
0	132249	5950.15	4680.15
0	132250	5950.15	4580.15
0	132251	5950.15	4480.15
0	132252	5950.15	4380.15
0	132253	5950.15	4280.15
0	132254	5950.15	4180.15
0	132255	5950.15	4080.15
0	132256	5950.15	3980.15
0	132257	5950.15	5770.15
0	132258	5950.15	5670.15
0	132259	5950.15	5570.15
0	132260	5950.15	5470.15
0	132261	5950.15	5370.15
0	132262	5950.15	5270.15
0	132263	5950.15	5170.15
0	132264	5950.15	5070.15
0	132265	5950.15	4970.15
0	132266	5950.15	4870.15
0	132267	5950.15	4770.15
0	132268	5950.15	4670.15
0	132269	5950.15	4570.15
0	132270	5950.15	4470.15
0	132271	5950.15	4370.15
0	132272	5950.15	4270.15
0	132273	5950.15	4170.15
0	132274	5950.15	4070.15
0	132275	5950.15	3970.15
0	132276	5950.15	5760.15
0	132277	5950.15	5660.15
0	132278	5950.15	5560.15
0	132279	5950.15	5460.15
0	132280	5950.15	5360.15
0	132281	5950.15	5260.15
0	132282	5950.15	5160.15
0	132283	5950.15	5060.15
0	132284	5950.15	4960.15
0	132285	5950.15	4860.15
0	132286	5950.15	4760.15
0	132287	5950.15	4660.15
0	132288	5950.15	4560.15
0	132289	5950.15	4460.15
0	132290	5950.15	4360.15
0	132291	5950.15	4260.15
0	132292	5950.15	4160.15
0	132293	5950.15	4060.15
0	132294	5950.15	3960.15
0	132295	5950.15	5750.15
0	132296	5950.15	5650.15
0	132297	5950.15	5550.15
0	132298	5950.15	5450.15
0	132299	5950.15	5350.15
0	132300	5950.15	5250.15
0	132301	5950.15	5150.15
0	132302	5950.15	5050.15
0	132303	5950.15	4950.15
0	132304	5950.15	4850.15
0	132305	5950.15	4750.15
0	132306	5950.15	4650.15
0	132307	5950.15	4550.15
0	132308	5950.15	4450.15
0	132309	5950.15	4350.15
0	132310	5950.15	4250.15
0	132311	5950.15	4150.15
0	132312	5950.15	4050.15
0	132313	5950.15	3950.15
0	132314	5950.15	5740.15
0	132315	5950.15	5640.15
0	132316	5950.15	5540.15
0	132317	5950.15	5440.15
0	132318	5950.15	5340.15
0	132319	5950.15	5240.15
0	132320	5950.15	5140.15
0	132321	5950.15	5040.15
0	132322	5950.15	4940.15
0	132323	5950.15	4840.15
0	132324	5950.15	4740.15
0	132325	5950.15	4640.15
0	132326	5950.15	4540.15
0	132327	5950.15	4440.15
0	132328	5950.15	4340.15
0	132329	5950.15	4240.15
0	132330	5950.15	4140.15
0	132331	5950.15	4040.15
0	132332	5950.15	3940.15
0	132333	5950.15	5730.15
0	132334	5950.15	5630.15
0	132335	5950.15	5530.15
0	132336	5950.15	5430.15
0	132337	5950.15	5330.15
0	132338	5950.15	5230.15
0	132339	5950.15	5130.15
0	132340	5950.15	5030.15
0	132341	5950.15	4930.15
0	132342	5950.15	4830.15
0	132343	5950.15	4730.15
0	132344	5950.15	4630.15
0	132345	5950.15	4530.15
0	132346	5950.15	4430.15
0	132347	5950.15	4330.15
0	132348	5950.15	4230.15
0	132349	5950.15	4130.15
0	132350	5950.15	4030.15
0	132351	5950.15	3930.15
0	132352	5950.15	5720.15
0	132353	5950.15	5620.15
0	132354	5950.15	5520.15
0	132355	5950.15	5420.15
0	132356	5950.15	5320.15
0	132357	5950.15	5220.15
0	132358	5950.15	5120.15
0	132359	5950.15	5020.15
0	132360	5950.15	4920.15
0	132361	5950.15	4820.15
0	132362	5950.15	4720.15
0	132363	5950.15	4620.15
0	132364	5950.15	4520.15
0	132365	5950.15	4420.15
0	132366	5950.15	4320.15
0	132367	5950.15	4220.15
0	132368	5950.15	4120.15
0	132369	5950.15	4020.15
0	132370	5950.15	3920.15
0	132371	5950.15	5710.15
0	132372	5950.15	5610.15
0	132373	5950.15	5510.15
0	132374	5950.15	5410.15
0	132375	5950.15	5310.15
0	132376	5950.15	5210.15
0	132377	5950.15	5110.15
0	132378	5950.15	5010.15
0	132379	5950.15	4910.15
0	132380	5950.15	4810.15
0	132381	5950.15	4710.15
0	132382	5950.15	4610.15
0	132383	5950.15	4510.15
0	132384	5950.15	4410.15
0	132385	5950.15	4310.15
0	132386	5950.15	4210.15
0	132387	5950.15	4110.15
0	132388	5950.15	4010.15
0	132389	5950.15	3910.15
0	132390	5950.15	5700.15
0	132391	5950.15	5600.15
0	132392	5950.15	5500.15
0	132393	5950.15	5400.15
0	132394	5950.15	5300.15
0	132395	5950.15	5200.15
0	132396	5950.15	5100.15
0	132397	5950.15	5000.15
0	132398	5950.15	4900.15
0	132399	5950.15	4800.15
0	132400	5950.15	4700.15
0	132401	5950.15	4600.15
0	132402	5950.15	4500.15
0	132403	5950.15	4400.15
0	132404	5950.15	4300.15
0	132405	5950.15	4200.15
0	132406	5950.15	4100.15
0	132407	5950.15	4000.15
0	132408	5950.15	3900.15
0	132409	5950.15	3890.15
0	132410	5950.15	3880.15
0	132411	5950.15	3870.15
0	132412	5950.15	3860.15
0	132413	5950.15	3850.15
0	132414	5950.15	3840.15
0	132415	5950.15	3830.15
0	132416	5950.15	3820.15
0	132417	5950.15	3810.15
0	132418	5950.15	3800.15
0	132419	5950.15	3790.15
0	132420	5950.15	3780.15
0	132421	5950.15	3770.15
0	132422	5950.15	3760.15
0	132423	5950.15	3750.15
0	132424	5950.15	3740.15
0	132425	5950.15	3730.15
0	132426	5950.15	3720.15
0	132427	5950.15	3710.15
0	132428	5950.15	3700.15
0	132429	5950.15	3690.15
0	132430	5950.15	3680.15
0	132431	5950.15	3670.15
0	132432	5950.15	3660.15
0	132433	5950.15	3650.15
0	132434	5950.15	3640.15
0	132435	5950.15	3630.15
0	132436	5950.15	3620.15
0	132437	5950.15	3610.15
0	132438	5950.15	3600.15
0	132439	5950.15	3590.15
0	132440	5950.15	3580.15
0	132441	5950.15	3570.15
0	132442	5950.15	3560.15
0	132443	5950.15	3550.15
0	132444	5950.15	3540.15
0	132445	5950.15	3530.15
0	132446	5950.15	3520.15
0	132447	5950.15	3510.15
0	132448	5950.15	3500.15
0	132449	5950.15	3490.15
0	132450	5950.15	3480.15
0	132451	5950.15	3470.15
0	132452	5950.15	3460.15
0	132453	5950.15	3450.15
0	132454	5950.15	3440.15
0	132455	5950.15	3430.15
0	132456	5950.15	3420.15
0	132457	5950.15	3410.15
0	132458	5950.15	3400.15
0	132459	5950.15	3390.15
0	132460	5950.15	3380.15
0	132461	5950.15	3370.15
0	132462	5950.15	3360.15
0	132463	5950.15	3350.15
0	132464	5950.15	3340.15
0	132465	5950.15	3330.15
0	132466	5950.15	3320.15
0	132467	5950.15	3310.15
0	132468	5950.15	3300.15
0	132469	5950.15	3290.15
0	132470	5950.15	3280.15
0	132471	5950.15	3270.15
0	132472	5950.15	3260.15
0	132473	5950.15	3250.15
0	132474	5950.15	3240.15
0	132475	5950.15	3230.15
0	132476	5950.15	3220.15
0	132477	5950.15	3210.15
0	132478	5950.15	3200.15
0	132479	5950.15	3190.15
0	132480	5950.15	3180.15
0	132481	5950.15	3170.15
0	132482	5950.15	3160.15
0	132483	5950.15	3150.15
0	132484	5950.15	3140.15
0	132485	5950.15	3130.15
0	132486	5950.15	3120.15
0	132487	5950.15	3110.15
0	132488	5950.15	3100.15
0	132489	5950.15	3090.15
0	132490	5950.15	3080.15
0	132491	5950.15	3070.15
0	132492	5950.15	3060.15
0	132493	5950.15	3050.15
0	132494	5950.15	3040.15
0	132495	5950.15	3030.15
0	132496	5950.15	3020.15
0	132497	5950.15	3010.15
0	132498	5950.15	3000.15
0	132499	5950.15	2990.15
0	132500	5950.15	2980.15
0	132501	5950.15	2970.15
0	132502	5950.15	2960.15
0	132503	5950.15	2950.15
0	132504	5950.15	2940.15
0	132505	5950.15	2930.15
0	132506	5950.15	2920.15
0	132507	5950.15	2910.15
0	132508	5950.15	2900.15
0	132509	5950.15	2890.15
0	132510	5950.15	2880.15
0	132511	5950.15	2870.15
0	132512	5950.15	2860.15
0	132513	5950.15	2850.15
0	132514	5950.15	2840.15
0	132515	5950.15	2830.15
0	132516	5950.15	2820.15
0	132517	5950.15	2810.15
0	132518	5950.15	2800.15
0	132519	5950.15	2790.15
0	132520	5950.15	2780.15
0	132521	5950.15	2770.15
0	132522	5950.15	2760.15
0	132523	5950.15	2750.15
0	132524	5950.15	2740.15
0	132525	5950.15	2730.15
0	132526	5950.15	2720.15
0	132527	5950.15	2710.15
0	132528	5950.15	2700.15
0	132529	5950.15	2030.15
0	132530	5950.15	2020.15
0	132531	5950.15	2010.15
0	132532	5950.15	2000.15
0	132533	5950.15	1990.15
0	132534	5950.15	1980.15
0	132535	5950.15	1970.15
0	132536	5950.15	1960.15
0	132537	5950.15	1950.15
0	132538	5950.15	1940.15
0	132539	5950.15	1930.15
0	132540	5950.15	1920.15
0	132541	5950.15	1910.15
0	132542	5950.15	1900.15
0	132543	5950.15	1890.15
0	132544	5950.15	1980.15
0	132545	5950.15	1880.15
0	132546	5950.15	1970.15
0	132547	5950.15	1870.15
0	132548	5950.15	1960.15
0	132549	5950.15	1860.15
0	132550	5950.15	1950.15
0	132551	5950.15	1850.15
0	132552	5950.15	1940.15
0	132553	5950.15	1840.15
0	132554	5950.15	1930.15
0	132555	5950.15	1830.15
0	132556	5950.15	1920.15
0	132557	5950.15	1820.15
0	132558	5950.15	1910.15
0	132559	5950.15	1810.15
0	132560	5950.15	1900.15
0	132561	5950.15	1800.15
0	132562	5950.15	1890.15
0	132563	5950.15	1790.15
0	132564	5950.15	1980.15
0	132565	5950.15	1880.15
0	132566	5950.15	1780.15
0	132567	5950.15	1970.15
0	132568	5950.15	1870.15
0	132569	5950.15	1770.15
0	132570	5950.15	1960.15
0	132571	5950.15	1860.15
0	132572	5950.15	1760.15
0	132573	5950.15	1950.15
0	132574	5950.15	1850.15
0	132575	5950.15	1750.15
0	132576	5950.15	1940.15
0	132577	5950.15	1840.15
0	132578	5950.15	1740.15
0	132579	5950.15	1730.15
0	132580	5950.15	1720.15
0	132581	5950.15	1710.15
0	132582	5950.15	1700.15
0	132583	5950.15	1690.15
0	132584	5950.15	1680.15
0	132585	5950.15	1670.15
0	132586	5950.15	1660.15
0	132587	5950.15	1650.15
0	132588	5950.15	1640.15
0	132589	5950.15	1630.15
0	132590	5950.15	1620.15
0	132591	5950.15	1610.15
0	132592	5950.15	1600.15
0	132593	5950.15	1590.15
0	132594	5950.15	1580.15
0	132595	5950.15	1570.15
0	132596	5950.15	1560.15
0	132597	5950.15	1550.15
0	132598	5950.15	1540.15
0	132599	5950.15	1930.15
0	132600	5950.15	1830.15
0	132601	5950.15	1920.15
0	132602	5950.15	1820.15
0	132603	5950.15	1910.15
0	132604	5950.15	1810.15
0	132605	5950.15	1900.15
0	132606	5950.15	1800.15
0	132607	5950.15	1890.15
0	132608	5950.15	1790.15
0	132609	5950.15	1980.15
0	132610	5950.15	1880.15
0	132611	5950.15	1780.15
0	132612	5950.15	1970.15
0	132613	5950.15	1870.15
0	132614	5950.15	1770.15
0	132615	5950.15	1960.15
0	132616	5950.15	1860.15
0	132617	5950.15	1760.15
0	132618	5950.15	1950.15
0	132619	5950.15	1850.15
0	132620	5950.15	1750.15
0	132621	5950.15	1940.15
0	132622	5950.15	1840.15
0	132623	5950.15	1740.15
0	132624	5950.15	1730.15
0	132625	5950.15	1720.15
0	132626	5950.15	1710.15
0	132627	5950.15	1700.15
0	132628	5950.15	1690.15
0	132629	5950.15	1680.15
0	132630	5950.15	1670.15
0	132631	5950.15	1660.15
0	132632	5950.15	1650.15
0	132633	5950.15	1640.15
0	132634	5950.15	1630.15
0	132635	5950.15	1530.15
0	132636	5950.15	1620.15
0	132637	5950.15	1520.15
0	132638	5950.15	1610.15
0	132639	5950.15	1510.15
0	132640	5950.15	1600.15
0	132641	5950.15	1500.15
0	132642	5950.15	1590.15
0	132643	5950.15	1490.15
0	132644	5950.15	1580.15
0	132645	5950.15	1480.15
0	132646	5950.15	1570.15
0	132647	5950.15	1470.15
0	132648	5950.15	1560.15
0	132649	5950.15	1460.15
0	132650	5950.15	1550.15
0	132651	5950.15	1450.15
0	132652	5950.15	1540.15
0	132653	5950.15	1440.15
0	132654	5950.15	1930.15
0	132655	5950.15	1830.15
0	132656	5950.15	1920.15
0	132657	5950.15	1820.15
0	132658	5950.15	1910.15
0	132659	5950.15	1810.15
0	132660	5950.15	1900.15
0	132661	5950.15	1800.15
0	132662	5950.15	1890.15
0	132663	5950.15	1790.15
0	132664	5950.15	1980.15
0	132665	5950.15	1880.15
0	132666	5950.15	1780.15
0	132667	5950.15	1970.15
0	132668	5950.15	1870.15
0	132669	5950.15	1770.15
0	132670	5950.15	1960.15
0	132671	5950.15	1860.15
0	132672	5950.15	1760.15
0	132673	5950.15	1950.15
0	132674	5950.15	1850.15
0	132675	5950.15	1750.15
0	132676	5950.15	1940.15
0	132677	5950.15	1840.15
0	132678	5950.15	1740.15
0	132679	5950.15	1730.15
0	132680	5950.15	1720.15
0	132681	5950.15	1710.15
0	132682	5950.15	1700.15
0	132683	5950.15	1690.15
0	132684	5950.15	1680.15
0	132685	5950.15	1670.15
0	132686	5950.15	1660.15
0	132687	5950.15	1650.15
0	132688	5950.15	1640.15
0	132689	5950.15	1630.15
0	132690	5950.15	1530.15
0	132691	5950.15	1430.15
0	132692	5950.15	1620.15
0	132693	5950.15	1520.15
0	132694	5950.15	1420.15
0	132695	5950.15	1610.15
0	132696	5950.15	1510.15
0	132697	5950.15	1410.15
0	132698	5950.15	1600.15
0	132699	5950.15	1500.15
0	132700	5950.15	1400.15
0	132701	5950.15	1590.15
0	132702	5950.15	1490.15
0	132703	5950.15	1390.15
0	132704	5950.15	1580.15
0	132705	5950.15	1480.15
0	132706	5950.15	1380.15
0	132707	5950.15	1570.15
0	132708	5950.15	1470.15
0	132709	5950.15	1370.15
0	132710	5950.15	1560.15
0	132711	5950.15	1460.15
0	132712	5950.15	1360.15
0	132713	5950.15	1550.15
0	132714	5950.15	1450.15
0	132715	5950.15	1350.15
0	132716	5950.15	1540.15
0	132717	5950.15	1440.15
0	132718	5950.15	1340.15
0	132719	5950.15	1930.15
0	132720	5950.15	1830.15
0	132721	5950.15	1920.15
0	132722	5950.15	1820.15
0	132723	5950.15	1910.15
0	132724	5950.15	1810.15
0	132725	5950.15	1900.15
0	132726	5950.15	1800.15
0	132727	5950.15	1890.15
0	132728	5950.15	1790.15
0	132729	5950.15	1980.15
0	132730	5950.15	1880.15
0	132731	5950.15	1780.15
0	132732	5950.15	1970.15
0	132733	5950.15	1870.15
0	132734	5950.15	1770.15
0	132735	5950.15	1960.15
0	132736	5950.15	1860.15
0	132737	5950.15	1760.15
0	132738	5950.15	1950.15
0	132739	5950.15	1850.15
0	132740	5950.15	1750.15
0	132741	5950.15	1940.15
0	132742	5950.15	1840.15
0	132743	5950.15	1740.15
0	132744	5950.15	1730.15
0	132745	5950.15	1720.15
0	132746	5950.15	1710.15
0	132747	5950.15	1700.15
0	132748	5950.15	1690.15
0	132749	5950.15	1680.15
0	132750	5950.15	1670.15
0	132751	5950.15	1660.15
0	132752	5950.15	1650.15
0	132753	5950.15	1640.15
0	132754	5950.15	1630.15
0	132755	5950.15	1530.15
0	132756	5950.15	1430.15
0	132757	5950.15	1330.15
0	132758	5950.15	1620.15
0	132759	5950.15	1520.15
0	132760	5950.15	1420.15
0	132761	5950.15	1320.15
0	132762	5950.15	1610.15
0	132763	5950.15	1510.15
0	132764	5950.15	1410.15
0	132765	5950.15	1310.15
0	132766	5950.15	1600.15
0	132767	5950.15	1500.15
0	132768	5950.15	1400.15
0	132769	5950.15	1300.15
0	136076	5960.15	1600.15
0	136077	5960.15	1500.15
0	136078	5960.15	1400.15
0	136079	5960.15	1300.15
0	136241	5970.15	1600.15
0	136242	5970.15	1500.15
0	136243	5970.15	1400.15
0	136244	5970.15	1300.15
0	136406	5980.15	1600.15
0	136407	5980.15	1500.15
0	136408	5980.15	1400.15
0	136409	5980.15	1300.15
0	136571	5990.15	1600.15
0	136572	5990.15	1500.15
0	136573	5990.15	1400.15
0	136574	5990.15	1300.15
0	136736	6000.15	1600.15
0	136737	6000.15	1500.15
0	136738	6000.15	1400.15
0	136739	6000.15	1300.15
0	136859	6010.15	1300.15
0	136964	6020.15	1300.15
0	137069	6030.15	1300.15
0	137174	6040.15	1300.15
0	146730	6050.15	2700.15
0	146731	6050.15	2790.15
0	146732	6050.15	2690.15
0	146733	6050.15	2780.15
0	146734	6050.15	2680.15
0	146735	6050.15	2770.15
0	146736	6050.15	2670.15
0	146737	6050.15	2760.15
0	146738	6050.15	2660.15
0	146739	6050.15	2750.15
0	146740	6050.15	2650.15
0	146741	6050.15	2740.15
0	146742	6050.15	2640.15
0	146743	6050.15	2730.15
0	146744	6050.15	2630.15
0	146745	6050.15	2720.15
0	146746	6050.15	2620.15
0	146747	6050.15	2710.15
0	146748	6050.15	2610.15
0	146749	6050.15	2600.15
0	146750	6050.15	2590.15
0	146751	6050.15	2580.15
0	146752	6050.15	2570.15
0	146753	6050.15	2560.15
0	146754	6050.15	2550.15
0	146755	6050.15	2540.15
0	146756	6050.15	2530.15
0	146757	6050.15	2520.15
0	146758	6050.15	2510.15
0	146759	6050.15	2500.15
0	146760	6050.15	2490.15
0	146761	6050.15	2480.15
0	146762	6050.15	2470.15
0	146763	6050.15	2460.15
0	146764	6050.15	2450.15
0	146765	6050.15	2440.15
0	146766	6050.15	2430.15
0	146767	6050.15	2420.15
0	146768	6050.15	2410.15
0	146769	6050.15	2400.15
0	146770	6050.15	2390.15
0	146771	6050.15	2380.15
0	146772	6050.15	2370.15
0	146773	6050.15	2360.15
0	146774	6050.15	2350.15
0	146775	6050.15	2340.15
0	146776	6050.15	2330.15
0	146777	6050.15	2320.15
0	146778	6050.15	2310.15
0	146779	6050.15	2300.15
0	146780	6050.15	2290.15
0	146781	6050.15	2280.15
0	146782	6050.15	2270.15
0	146783	6050.15	2260.15
0	146784	6050.15	2250.15
0	146785	6050.15	2240.15
0	146786	6050.15	2230.15
0	146787	6050.15	2220.15
0	146788	6050.15	2210.15
0	146789	6050.15	2200.15
0	146790	6050.15	2190.15
0	146791	6050.15	2180.15
0	146792	6050.15	2170.15
0	146793	6050.15	2160.15
0	146794	6050.15	2150.15
0	146795	6050.15	2140.15
0	146796	6050.15	6050.15
0	146797	6050.15	6040.15
0	146798	6050.15	6030.15
0	146799	6050.15	6020.15
0	146800	6050.15	6010.15
0	146801	6050.15	6000.15
0	146802	6050.15	5990.15
0	146803	6050.15	5980.15
0	146804	6050.15	5970.15
0	146805	6050.15	5960.15
0	146806	6050.15	5950.15
0	146807	6050.15	5940.15
0	146808	6050.15	5930.15
0	146809	6050.15	5920.15
0	146810	6050.15	5910.15
0	146811	6050.15	5900.15
0	146812	6050.15	5890.15
0	146813	6050.15	5790.15
0	146814	6050.15	5690.15
0	146815	6050.15	5590.15
0	146816	6050.15	5490.15
0	146817	6050.15	5390.15
0	146818	6050.15	5290.15
0	146819	6050.15	5190.15
0	146820	6050.15	5090.15
0	146821	6050.15	4990.15
0	146822	6050.15	4890.15
0	146823	6050.15	4790.15
0	146824	6050.15	4690.15
0	146825	6050.15	4590.15
0	146826	6050.15	4490.15
0	146827	6050.15	4390.15
0	146828	6050.15	4290.15
0	146829	6050.15	4190.15
0	146830	6050.15	4090.15
0	146831	6050.15	5880.15
0	146832	6050.15	5780.15
0	146833	6050.15	5680.15
0	146834	6050.15	5580.15
0	146835	6050.15	5480.15
0	146836	6050.15	5380.15
0	146837	6050.15	5280.15
0	146838	6050.15	5180.15
0	146839	6050.15	5080.15
0	146840	6050.15	4980.15
0	146841	6050.15	4880.15
0	146842	6050.15	4780.15
0	146843	6050.15	4680.15
0	146844	6050.15	4580.15
0	146845	6050.15	4480.15
0	146846	6050.15	4380.15
0	146847	6050.15	4280.15
0	146848	6050.15	4180.15
0	146849	6050.15	4080.15
0	146850	6050.15	5870.15
0	146851	6050.15	5770.15
0	146852	6050.15	5670.15
0	146853	6050.15	5570.15
0	146854	6050.15	5470.15
0	146855	6050.15	5370.15
0	146856	6050.15	5270.15
0	146857	6050.15	5170.15
0	146858	6050.15	5070.15
0	146859	6050.15	4970.15
0	146860	6050.15	4870.15
0	146861	6050.15	4770.15
0	146862	6050.15	4670.15
0	146863	6050.15	4570.15
0	146864	6050.15	4470.15
0	146865	6050.15	4370.15
0	146866	6050.15	4270.15
0	146867	6050.15	4170.15
0	146868	6050.15	4070.15
0	146869	6050.15	5860.15
0	146870	6050.15	5760.15
0	146871	6050.15	5660.15
0	146872	6050.15	5560.15
0	146873	6050.15	5460.15
0	146874	6050.15	5360.15
0	146875	6050.15	5260.15
0	146876	6050.15	5160.15
0	146877	6050.15	5060.15
0	146878	6050.15	4960.15
0	146879	6050.15	4860.15
0	146880	6050.15	4760.15
0	146881	6050.15	4660.15
0	146882	6050.15	4560.15
0	146883	6050.15	4460.15
0	146884	6050.15	4360.15
0	146885	6050.15	4260.15
0	146886	6050.15	4160.15
0	146887	6050.15	4060.15
0	146888	6050.15	5850.15
0	146889	6050.15	5750.15
0	146890	6050.15	5650.15
0	146891	6050.15	5550.15
0	146892	6050.15	5450.15
0	146893	6050.15	5350.15
0	146894	6050.15	5250.15
0	146895	6050.15	5150.15
0	146896	6050.15	5050.15
0	146897	6050.15	4950.15
0	146898	6050.15	4850.15
0	146899	6050.15	4750.15
0	146900	6050.15	4650.15
0	146901	6050.15	4550.15
0	146902	6050.15	4450.15
0	146903	6050.15	4350.15
0	146904	6050.15	4250.15
0	146905	6050.15	4150.15
0	146906	6050.15	4050.15
0	146907	6050.15	5840.15
0	146908	6050.15	5740.15
0	146909	6050.15	5640.15
0	146910	6050.15	5540.15
0	146911	6050.15	5440.15
0	146912	6050.15	5340.15
0	146913	6050.15	5240.15
0	146914	6050.15	5140.15
0	146915	6050.15	5040.15
0	146916	6050.15	4940.15
0	146917	6050.15	4840.15
0	146918	6050.15	4740.15
0	146919	6050.15	4640.15
0	146920	6050.15	4540.15
0	146921	6050.15	4440.15
0	146922	6050.15	4340.15
0	146923	6050.15	4240.15
0	146924	6050.15	4140.15
0	146925	6050.15	4040.15
0	146926	6050.15	5830.15
0	146927	6050.15	5730.15
0	146928	6050.15	5630.15
0	146929	6050.15	5530.15
0	146930	6050.15	5430.15
0	146931	6050.15	5330.15
0	146932	6050.15	5230.15
0	146933	6050.15	5130.15
0	146934	6050.15	5030.15
0	146935	6050.15	4930.15
0	146936	6050.15	4830.15
0	146937	6050.15	4730.15
0	146938	6050.15	4630.15
0	146939	6050.15	4530.15
0	146940	6050.15	4430.15
0	146941	6050.15	4330.15
0	146942	6050.15	4230.15
0	146943	6050.15	4130.15
0	146944	6050.15	4030.15
0	146945	6050.15	5820.15
0	146946	6050.15	5720.15
0	146947	6050.15	5620.15
0	146948	6050.15	5520.15
0	146949	6050.15	5420.15
0	146950	6050.15	5320.15
0	146951	6050.15	5220.15
0	146952	6050.15	5120.15
0	146953	6050.15	5020.15
0	146954	6050.15	4920.15
0	146955	6050.15	4820.15
0	146956	6050.15	4720.15
0	146957	6050.15	4620.15
0	146958	6050.15	4520.15
0	146959	6050.15	4420.15
0	146960	6050.15	4320.15
0	146961	6050.15	4220.15
0	146962	6050.15	4120.15
0	146963	6050.15	4020.15
0	146964	6050.15	5810.15
0	146965	6050.15	5710.15
0	146966	6050.15	5610.15
0	146967	6050.15	5510.15
0	146968	6050.15	5410.15
0	146969	6050.15	5310.15
0	146970	6050.15	5210.15
0	146971	6050.15	5110.15
0	146972	6050.15	5010.15
0	146973	6050.15	4910.15
0	146974	6050.15	4810.15
0	146975	6050.15	4710.15
0	146976	6050.15	4610.15
0	146977	6050.15	4510.15
0	146978	6050.15	4410.15
0	146979	6050.15	4310.15
0	146980	6050.15	4210.15
0	146981	6050.15	4110.15
0	146982	6050.15	4010.15
0	146983	6050.15	5800.15
0	146984	6050.15	5700.15
0	146985	6050.15	5600.15
0	146986	6050.15	5500.15
0	146987	6050.15	5400.15
0	146988	6050.15	5300.15
0	146989	6050.15	5200.15
0	146990	6050.15	5100.15
0	146991	6050.15	5000.15
0	146992	6050.15	4900.15
0	146993	6050.15	4800.15
0	146994	6050.15	4700.15
0	146995	6050.15	4600.15
0	146996	6050.15	4500.15
0	146997	6050.15	4400.15
0	146998	6050.15	4300.15
0	146999	6050.15	4200.15
0	147000	6050.15	4100.15
0	147001	6050.15	4000.15
0	147002	6050.15	3990.15
0	147003	6050.15	3980.15
0	147004	6050.15	3970.15
0	147005	6050.15	3960.15
0	147006	6050.15	3950.15
0	147007	6050.15	3940.15
0	147008	6050.15	3930.15
0	147009	6050.15	3920.15
0	147010	6050.15	3910.15
0	147011	6050.15	3900.15
0	147012	6050.15	3890.15
0	147013	6050.15	3880.15
0	147014	6050.15	3870.15
0	147015	6050.15	3860.15
0	147016	6050.15	3850.15
0	147017	6050.15	3840.15
0	147018	6050.15	3830.15
0	147019	6050.15	3820.15
0	147020	6050.15	3810.15
0	147021	6050.15	3800.15
0	147022	6050.15	3790.15
0	147023	6050.15	3780.15
0	147024	6050.15	3770.15
0	147025	6050.15	3760.15
0	147026	6050.15	3750.15
0	147027	6050.15	3740.15
0	147028	6050.15	3730.15
0	147029	6050.15	3720.15
0	147030	6050.15	3710.15
0	147031	6050.15	3700.15
0	147032	6050.15	3690.15
0	147033	6050.15	3680.15
0	147034	6050.15	3670.15
0	147035	6050.15	3660.15
0	147036	6050.15	3650.15
0	147037	6050.15	3640.15
0	147038	6050.15	3630.15
0	147039	6050.15	3620.15
0	147040	6050.15	3610.15
0	147041	6050.15	3600.15
0	147042	6050.15	3590.15
0	147043	6050.15	3580.15
0	147044	6050.15	3570.15
0	147045	6050.15	3560.15
0	147046	6050.15	3550.15
0	147047	6050.15	3540.15
0	147048	6050.15	3530.15
0	147049	6050.15	3520.15
0	147050	6050.15	3510.15
0	147051	6050.15	3500.15
0	147052	6050.15	3490.15
0	147053	6050.15	3480.15
0	147054	6050.15	3470.15
0	147055	6050.15	3460.15
0	147056	6050.15	3450.15
0	147057	6050.15	3440.15
0	147058	6050.15	3430.15
0	147059	6050.15	3420.15
0	147060	6050.15	3410.15
0	147061	6050.15	3400.15
0	147062	6050.15	3390.15
0	147063	6050.15	3380.15
0	147064	6050.15	3370.15
0	147065	6050.15	3360.15
0	147066	6050.15	3350.15
0	147067	6050.15	3340.15
0	147068	6050.15	3330.15
0	147069	6050.15	3320.15
0	147070	6050.15	3310.15
0	147071	6050.15	3300.15
0	147072	6050.15	3290.15
0	147073	6050.15	3280.15
0	147074	6050.15	3270.15
0	147075	6050.15	3260.15
0	147076	6050.15	3250.15
0	147077	6050.15	3240.15
0	147078	6050.15	3230.15
0	147079	6050.15	3220.15
0	147080	6050.15	3210.15
0	147081	6050.15	3200.15
0	147082	6050.15	3190.15
0	147083	6050.15	3180.15
0	147084	6050.15	3170.15
0	147085	6050.15	3160.15
0	147086	6050.15	3150.15
0	147087	6050.15	3140.15
0	147088	6050.15	3130.15
0	147089	6050.15	3120.15
0	147090	6050.15	3110.15
0	147091	6050.15	3100.15
0	147092	6050.15	3090.15
0	147093	6050.15	3080.15
0	147094	6050.15	3070.15
0	147095	6050.15	3060.15
0	147096	6050.15	3050.15
0	147097	6050.15	3040.15
0	147098	6050.15	3030.15
0	147099	6050.15	3020.15
0	147100	6050.15	3010.15
0	147101	6050.15	3000.15
0	147102	6050.15	2990.15
0	147103	6050.15	2980.15
0	147104	6050.15	2970.15
0	147105	6050.15	2960.15
0	147106	6050.15	2950.15
0	147107	6050.15	2940.15
0	147108	6050.15	2930.15
0	147109	6050.15	2920.15
0	147110	6050.15	2910.15
0	147111	6050.15	2900.15
0	147112	6050.15	2890.15
0	147113	6050.15	2880.15
0	147114	6050.15	2870.15
0	147115	6050.15	2860.15
0	147116	6050.15	2850.15
0	147117	6050.15	2840.15
0	147118	6050.15	2830.15
0	147119	6050.15	2820.15
0	147120	6050.15	2810.15
0	147121	6050.15	2800.15
0	147122	6050.15	2130.15
0	147123	6050.15	2120.15
0	147124	6050.15	2110.15
0	147125	6050.15	2100.15
0	147126	6050.15	2090.15
0	147127	6050.15	2080.15
0	147128	6050.15	2070.15
0	147129	6050.15	2060.15
0	147130	6050.15	2050.15
0	147131	6050.15	2040.15
0	147132	6050.15	2030.15
0	147133	6050.15	2020.15
0	147134	6050.15	2010.15
0	147135	6050.15	2000.15
0	147136	6050.15	1990.15
0	147137	6050.15	1980.15
0	147138	6050.15	1970.15
0	147139	6050.15	1960.15
0	147140	6050.15	1950.15
0	147141	6050.15	1940.15
0	147142	6050.15	1930.15
0	147143	6050.15	1920.15
0	147144	6050.15	1910.15
0	147145	6050.15	1900.15
0	147146	6050.15	1890.15
0	147147	6050.15	1880.15
0	147148	6050.15	1870.15
0	147149	6050.15	1860.15
0	147150	6050.15	1850.15
0	147151	6050.15	1840.15
0	147152	6050.15	1830.15
0	147153	6050.15	1820.15
0	147154	6050.15	1810.15
0	147155	6050.15	1800.15
0	147156	6050.15	1790.15
0	147157	6050.15	1780.15
0	147158	6050.15	1770.15
0	147159	6050.15	1760.15
0	147160	6050.15	1750.15
0	147161	6050.15	1740.15
0	147162	6050.15	1730.15
0	147163	6050.15	1720.15
0	147164	6050.15	1710.15
0	147165	6050.15	1700.15
0	147166	6050.15	1690.15
0	147167	6050.15	1680.15
0	147168	6050.15	1670.15
0	147169	6050.15	1660.15
0	147170	6050.15	1650.15
0	147171	6050.15	1640.15
0	147172	6050.15	1630.15
0	147173	6050.15	1620.15
0	147174	6050.15	1610.15
0	147175	6050.15	1600.15
0	147176	6050.15	1590.15
0	147177	6050.15	1580.15
0	147178	6050.15	1570.15
0	147179	6050.15	1560.15
0	147180	6050.15	1550.15
0	147181	6050.15	1540.15
0	147182	6050.15	1530.15
0	147183	6050.15	1520.15
0	147184	6050.15	1510.15
0	147185	6050.15	1500.15
0	147186	6050.15	1490.15
0	147187	6050.15	1480.15
0	147188	6050.15	1470.15
0	147189	6050.15	1460.15
0	147190	6050.15	1450.15
0	147191	6050.15	1440.15
0	147192	6050.15	1430.15
0	147193	6050.15	1420.15
0	147194	6050.15	1410.15
0	147195	6050.15	1400.15
0	147196	6050.15	2700.15
0	147197	6050.15	2790.15
0	147198	6050.15	2690.15
0	147199	6050.15	2780.15
0	147200	6050.15	2680.15
0	147201	6050.15	2770.15
0	147202	6050.15	2670.15
0	147203	6050.15	2760.15
0	147204	6050.15	2660.15
0	147205	6050.15	2750.15
0	147206	6050.15	2650.15
0	147207	6050.15	2740.15
0	147208	6050.15	2640.15
0	147209	6050.15	2730.15
0	147210	6050.15	2630.15
0	147211	6050.15	2720.15
0	147212	6050.15	2620.15
0	147213	6050.15	2710.15
0	147214	6050.15	2610.15
0	147215	6050.15	2600.15
0	147216	6050.15	2590.15
0	147217	6050.15	2580.15
0	147218	6050.15	2570.15
0	147219	6050.15	2560.15
0	147220	6050.15	2550.15
0	147221	6050.15	2540.15
0	147222	6050.15	2530.15
0	147223	6050.15	2520.15
0	147224	6050.15	2510.15
0	147225	6050.15	2500.15
0	147226	6050.15	2490.15
0	147227	6050.15	2480.15
0	147228	6050.15	2470.15
0	147229	6050.15	2460.15
0	147230	6050.15	2450.15
0	147231	6050.15	2440.15
0	147232	6050.15	2430.15
0	147233	6050.15	2420.15
0	147234	6050.15	2410.15
0	147235	6050.15	2400.15
0	147236	6050.15	2390.15
0	147237	6050.15	2380.15
0	147238	6050.15	2370.15
0	147239	6050.15	2360.15
0	147240	6050.15	2350.15
0	147241	6050.15	2340.15
0	147242	6050.15	2330.15
0	147243	6050.15	2320.15
[...]
0	536937	8960.09	5930.09
0	536938	8960.09	5920.09
0	536939	8960.09	5910.09
0	536940	8960.09	5900.09
0	536941	8960.09	5890.09
0	536942	8960.09	5880.09
0	536943	8960.09	5870.09
0	536944	8960.09	5860.09
0	536945	8960.09	5850.09
0	536946	8960.09	5840.09
0	536947	8960.09	5830.09
0	536948	8960.09	5820.09
0	536949	8960.09	5810.09
0	536950	8960.09	5800.09
0	536951	8960.09	5790.09
0	536952	8960.09	5780.09
0	536953	8960.09	5770.09
0	536954	8960.09	5760.09
0	536955	8960.09	5750.09
0	536956	8960.09	5740.09
0	536957	8960.09	5730.09
0	536958	8960.09	5720.09
0	536959	8960.09	5710.09
0	536960	8960.09	5040.09
0	536961	8960.09	5030.09
0	536962	8960.09	5020.09
0	536963	8960.09	5010.09
0	536964	8960.09	5000.09
0	536965	8960.09	4990.09
0	536966	8960.09	4980.09
0	536967	8960.09	4970.09
0	536968	8960.09	4960.09
0	536969	8960.09	4950.09
0	536970	8960.09	4940.09
0	536971	8960.09	4930.09
0	536972	8960.09	4920.09
0	536973	8960.09	4910.09
0	536974	8960.09	4900.09
0	536975	8960.09	4890.09
0	536976	8960.09	4880.09
0	536977	8960.09	4870.09
0	536978	8960.09	4860.09
0	536979	8960.09	4850.09
0	536980	8960.09	4840.09
0	536981	8960.09	4830.09
0	536982	8960.09	4820.09
0	536983	8960.09	4810.09
0	536984	8960.09	4800.09
0	536985	8960.09	4790.09
0	536986	8960.09	4780.09
0	536987	8960.09	4770.09
0	536988	8960.09	4760.09
0	536989	8960.09	4750.09
0	536990	8960.09	4740.09
0	536991	8960.09	4730.09
0	536992	8960.09	4720.09
0	536993	8960.09	4710.09
0	536994	8960.09	4700.09
0	536995	8960.09	4690.09
0	536996	8960.09	4680.09
0	536997	8960.09	4670.09
0	536998	8960.09	4660.09
0	536999	8960.09	4650.09
0	537000	8960.09	4640.09
0	537001	8960.09	4630.09
0	537002	8960.09	4620.09
0	537003	8960.09	4610.09
0	537004	8960.09	4550.09
0	537005	8960.09	4540.09
0	537006	8960.09	4530.09
0	537007	8960.09	4520.09
0	537008	8960.09	4510.09
0	537009	8960.09	4450.09
0	537010	8960.09	4440.09
0	537011	8960.09	4430.09
0	537012	8960.09	4420.09
0	537013	8960.09	4410.09
0	537014	8960.09	4350.09
0	537015	8960.09	4340.09
0	537016	8960.09	4330.09
0	537017	8960.09	4320.09
0	537018	8960.09	4310.09
0	537019	8960.09	4210.09
0	537020	8960.09	4110.09
0	537021	8960.09	4010.09
0	537022	8960.09	3910.09
0	537023	8960.09	3810.09
0	537024	8960.09	3710.09
0	537025	8960.09	3610.09
0	537026	8960.09	3510.09
0	537027	8960.09	3410.09
0	537028	8960.09	3310.09
0	537029	8960.09	3210.09
0	537030	8960.09	3110.09
0	537031	8960.09	3010.09
0	537032	8960.09	2910.09
0	537033	8960.09	2810.09
0	537034	8960.09	2710.09
0	537035	8960.09	2700.09
0	537036	8960.09	2690.09
0	537037	8960.09	2680.09
0	537038	8960.09	2670.09
0	537039	8960.09	2660.09
0	537040	8960.09	2650.09
0	537041	8960.09	2640.09
0	537042	8960.09	2630.09
0	537043	8960.09	2620.09
0	537044	8960.09	2610.09
0	537045	8960.09	2600.09
0	537046	8960.09	2590.09
0	537047	8960.09	2580.09
0	537048	8960.09	2570.09
0	537049	8960.09	2560.09
0	537050	8960.09	2550.09
0	537051	8960.09	2540.09
0	537052	8960.09	2530.09
0	537053	8960.09	2520.09
0	537054	8960.09	2510.09
0	537055	8960.09	2500.09
0	537056	8960.09	2490.09
0	537057	8960.09	2480.09
0	537058	8960.09	2470.09
0	537059	8960.09	2460.09
0	537060	8960.09	2450.09
0	537061	8960.09	2440.09
0	537062	8960.09	2430.09
0	537063	8960.09	2420.09
0	537064	8960.09	2410.09
0	537065	8960.09	2400.09
0	537066	8960.09	2390.09
0	537067	8960.09	2380.09
0	537068	8960.09	2370.09
0	537069	8960.09	2360.09
0	537070	8960.09	2350.09
0	537071	8960.09	2340.09
0	537072	8960.09	2330.09
0	537073	8960.09	2320.09
0	537074	8960.09	2310.09
0	537075	8960.09	2300.09
0	537076	8960.09	2290.09
0	537077	8960.09	2280.09
0	537078	8960.09	2270.09
0	537079	8960.09	2260.09
0	537080	8960.09	2250.09
0	537081	8960.09	2240.09
0	537082	8960.09	2230.09
0	537083	8960.09	2220.09
0	537084	8960.09	2210.09
0	537085	8960.09	2200.09
0	537086	8960.09	2190.09
0	537087	8960.09	2180.09
0	537088	8960.09	2170.09
0	537089	8960.09	2160.09
0	537090	8960.09	2150.09
0	537091	8960.09	2140.09
0	537092	8960.09	2130.09
0	537093	8960.09	2120.09
0	537094	8960.09	2110.09
0	537095	8960.09	2100.09
0	537096	8960.09	2090.09
0	537097	8960.09	2080.09
0	537098	8960.09	2070.09
0	537099	8960.09	2060.09
0	537100	8960.09	2050.09
0	537101	8960.09	2040.09
0	537102	8960.09	2030.09
0	537103	8960.09	2000.09
0	537104	8960.09	1900.09
0	537105	8960.09	1800.09
0	537106	8960.09	1700.09
0	537107	8960.09	1600.09
0	537108	8960.09	1500.09
0	537109	8960.09	1400.09
0	537110	8960.09	1300.09
0	547240	8970.09	2000.09
0	547241	8970.09	1900.09
0	547242	8970.09	1800.09
0	547243	8970.09	1700.09
0	547244	8970.09	1600.09
0	547245	8970.09	1500.09
0	547246	8970.09	1400.09
0	547247	8970.09	1300.09
0	547507	8980.09	2000.09
0	547508	8980.09	1900.09
0	547509	8980.09	1800.09
0	547510	8980.09	1700.09
0	547511	8980.09	1600.09
0	547512	8980.09	1500.09
0	547513	8980.09	1400.09
0	547514	8980.09	1300.09
0	547774	8990.09	2000.09
0	547775	8990.09	1900.09
0	547776	8990.09	1800.09
0	547777	8990.09	1700.09
0	547778	8990.09	1600.09
0	547779	8990.09	1500.09
0	547780	8990.09	1400.09
0	547781	8990.09	1300.09
0	548065	9000.09	2000.09
0	548066	9000.09	1900.09
0	548067	9000.09	1800.09
0	548068	9000.09	1700.09
0	548069	9000.09	1600.09
0	548070	9000.09	1500.09
0	548071	9000.09	1400.09
0	548072	9000.09	1300.09
0	548336	9010.09	2000.09
0	548337	9010.09	1900.09
0	548338	9010.09	1800.09
0	548339	9010.09	1700.09
0	548340	9010.09	1600.09
0	548341	9010.09	1500.09
0	548342	9010.09	1400.09
0	548343	9010.09	1300.09
0	548606	9020.09	2000.09
0	548607	9020.09	1900.09
0	548608	9020.09	1800.09
0	548609	9020.09	1700.09
0	548610	9020.09	1600.09
0	548611	9020.09	1500.09
0	548612	9020.09	1400.09
0	548613	9020.09	1300.09
0	548876	9030.09	2000.09
0	548877	9030.09	1900.09
0	548878	9030.09	1800.09
0	548879	9030.09	1700.09
0	548880	9030.09	1600.09
0	548881	9030.09	1500.09
0	548882	9030.09	1400.09
0	548883	9030.09	1300.09
0	550056	9320.07	1300.07
0	550089	9330.07	1300.07
0	550122	9340.07	1300.07
0	550211	9395.07	1345.07
0	550212	9395.07	1335.07
0	550213	9395.07	1325.07
0	550214	9395.07	1315.07
0	550215	9395.07	1305.07
0	550288	9400.07	1300.07
0	550321	9410.07	1300.07
0	550365	9420.07	1400.07
0	550366	9420.07	1300.07
0	550420	9430.07	1400.07
0	550421	9430.07	1300.07
0	550475	9440.07	1400.07
0	550476	9440.07	1300.07
0	550519	9450.07	1300.07
0	550552	9460.07	1300.07
0	550585	9470.07	1300.07
0	550618	9480.07	1300.07
0	550651	9490.07	1300.07
0	550725	9495.07	1445.07
0	550726	9495.07	1435.07
0	550727	9495.07	1425.07
0	550728	9495.07	1415.07
0	550729	9495.07	1405.07
0	550813	9500.07	1400.07
0	550814	9500.07	1300.07
0	550868	9510.07	1400.07
0	550869	9510.07	1300.07
0	550934	9520.07	1500.07
0	550935	9520.07	1400.07
0	550936	9520.07	1300.07
0	551011	9530.07	1500.07
0	551012	9530.07	1400.07
0	551013	9530.07	1300.07
0	551088	9540.07	1500.07
0	551089	9540.07	1400.07
0	551090	9540.07	1300.07
0	565882	9550.07	1400.07
0	565883	9550.07	1300.07
0	565939	9560.07	1400.07
0	565940	9560.07	1300.07
0	565996	9570.07	1400.07
0	565997	9570.07	1300.07
0	566053	9580.07	1400.07
0	566054	9580.07	1300.07
0	566110	9590.07	1400.07
0	566111	9590.07	1300.07
0	566197	9595.07	1545.07
0	566198	9595.07	1535.07
0	566199	9595.07	1525.07
0	566200	9595.07	1515.07
0	566201	9595.07	1505.07
0	566296	9600.07	1500.07
0	566297	9600.07	1400.07
0	566298	9600.07	1300.07
0	566375	9610.07	1500.07
0	566376	9610.07	1400.07
0	566377	9610.07	1300.07
0	566465	9620.07	1600.07
0	566466	9620.07	1500.07
0	566467	9620.07	1400.07
0	566468	9620.07	1300.07
0	566566	9630.07	1600.07
0	566567	9630.07	1500.07
0	566568	9630.07	1400.07
0	566569	9630.07	1300.07
0	566667	9640.07	1600.07
0	566668	9640.07	1500.07
0	566669	9640.07	1400.07
0	566670	9640.07	1300.07
0	566759	9650.07	1500.07
0	566760	9650.07	1400.07
0	566761	9650.07	1300.07
0	566840	9660.07	1500.07
0	566841	9660.07	1400.07
0	566842	9660.07	1300.07
0	566921	9670.07	1500.07
0	566922	9670.07	1400.07
0	566923	9670.07	1300.07
0	567002	9680.07	1500.07
0	567003	9680.07	1400.07
0	567004	9680.07	1300.07
0	567083	9690.07	1500.07
0	567084	9690.07	1400.07
0	567085	9690.07	1300.07
0	567183	9695.07	1645.07
0	567184	9695.07	1635.07
0	567185	9695.07	1625.07
0	567186	9695.07	1615.07
0	567187	9695.07	1605.07
0	567293	9700.07	1600.07
0	567294	9700.07	1500.07
0	567295	9700.07	1400.07
0	567296	9700.07	1300.07
0	567396	9710.07	1600.07
0	567397	9710.07	1500.07
0	567398	9710.07	1400.07
0	567399	9710.07	1300.07
0	567510	9720.07	1700.07
0	567511	9720.07	1600.07
0	567512	9720.07	1500.07
0	567513	9720.07	1400.07
0	567514	9720.07	1300.07
0	567635	9730.07	1700.07
0	567636	9730.07	1600.07
0	567637	9730.07	1500.07
0	567638	9730.07	1400.07
0	567639	9730.07	1300.07
0	567760	9740.07	1700.07
0	567761	9740.07	1600.07
0	567762	9740.07	1500.07
0	567763	9740.07	1400.07
0	567764	9740.07	1300.07
0	567876	9750.07	1600.07
0	567877	9750.07	1500.07
0	567878	9750.07	1400.07
0	567879	9750.07	1300.07
0	567981	9760.07	1600.07
0	567982	9760.07	1500.07
0	567983	9760.07	1400.07
0	567984	9760.07	1300.07
0	568086	9770.07	1600.07
0	568087	9770.07	1500.07
0	568088	9770.07	1400.07
0	568089	9770.07	1300.07
0	568191	9780.07	1600.07
0	568192	9780.07	1500.07
0	568193	9780.07	1400.07
0	568194	9780.07	1300.07
0	568296	9790.07	1600.07
0	568297	9790.07	1500.07
0	568298	9790.07	1400.07
0	568299	9790.07	1300.07
0	568409	9795.07	1745.07
0	568410	9795.07	1735.07
0	568411	9795.07	1725.07
0	568412	9795.07	1715.07
0	568413	9795.07	1705.07
0	568530	9800.07	1700.07
0	568531	9800.07	1600.07
0	568532	9800.07	1500.07
0	568533	9800.07	1400.07
0	568534	9800.07	1300.07
0	568657	9810.07	1700.07
0	568658	9810.07	1600.07
0	568659	9810.07	1500.07
0	568660	9810.07	1400.07
0	568661	9810.07	1300.07
0	568795	9820.07	1800.07
0	568796	9820.07	1700.07
0	568797	9820.07	1600.07
0	568798	9820.07	1500.07
0	568799	9820.07	1400.07
0	568800	9820.07	1300.07
0	568944	9830.07	1800.07
0	568945	9830.07	1700.07
0	568946	9830.07	1600.07
0	568947	9830.07	1500.07
0	568948	9830.07	1400.07
0	568949	9830.07	1300.07
0	569093	9840.07	1800.07
0	569094	9840.07	1700.07
0	569095	9840.07	1600.07
0	569096	9840.07	1500.07
0	569097	9840.07	1400.07
0	569098	9840.07	1300.07
0	569233	9850.07	1700.07
0	569234	9850.07	1600.07
0	569235	9850.07	1500.07
0	569236	9850.07	1400.07
0	569237	9850.07	1300.07
0	569362	9860.07	1700.07
0	569363	9860.07	1600.07
0	569364	9860.07	1500.07
0	569365	9860.07	1400.07
0	569366	9860.07	1300.07
0	569491	9870.07	1700.07
0	569492	9870.07	1600.07
0	569493	9870.07	1500.07
0	569494	9870.07	1400.07
0	569495	9870.07	1300.07
0	569620	9880.07	1700.07
0	569621	9880.07	1600.07
0	569622	9880.07	1500.07
0	569623	9880.07	1400.07
0	569624	9880.07	1300.07
0	569749	9890.07	1700.07
0	569750	9890.07	1600.07
0	569751	9890.07	1500.07
0	569752	9890.07	1400.07
0	569753	9890.07	1300.07
0	569875	9895.07	1845.07
0	569876	9895.07	1835.07
0	569877	9895.07	1825.07
0	569878	9895.07	1815.07
0	569879	9895.07	1805.07
0	570007	9900.07	1800.07
0	570008	9900.07	1700.07
0	570009	9900.07	1600.07
0	570010	9900.07	1500.07
0	570011	9900.07	1400.07
0	570012	9900.07	1300.07
0	570158	9910.07	1800.07
0	570159	9910.07	1700.07
0	570160	9910.07	1600.07
0	570161	9910.07	1500.07
0	570162	9910.07	1400.07
0	570163	9910.07	1300.07
0	570320	9920.07	1900.07
0	570321	9920.07	1800.07
0	570322	9920.07	1700.07
0	570323	9920.07	1600.07
0	570324	9920.07	1500.07
0	570325	9920.07	1400.07
0	570326	9920.07	1300.07
0	570493	9930.07	1900.07
0	570494	9930.07	1800.07
0	570495	9930.07	1700.07
0	570496	9930.07	1600.07
0	570497	9930.07	1500.07
0	570498	9930.07	1400.07
0	570499	9930.07	1300.07
0	570666	9940.07	1900.07
0	570667	9940.07	1800.07
0	570668	9940.07	1700.07
0	570669	9940.07	1600.07
0	570670	9940.07	1500.07
0	570671	9940.07	1400.07
0	570672	9940.07	1300.07
0	570830	9950.07	1800.07
0	570831	9950.07	1700.07
0	570832	9950.07	1600.07
0	570833	9950.07	1500.07
0	570834	9950.07	1400.07
0	570835	9950.07	1300.07
0	570983	9960.07	1800.07
0	570984	9960.07	1700.07
0	570985	9960.07	1600.07
0	570986	9960.07	1500.07
0	570987	9960.07	1400.07
0	570988	9960.07	1300.07
0	571136	9970.07	1800.07
0	571137	9970.07	1700.07
0	571138	9970.07	1600.07
0	571139	9970.07	1500.07
0	571140	9970.07	1400.07
0	571141	9970.07	1300.07
0	571289	9980.07	1800.07
0	571290	9980.07	1700.07
0	571291	9980.07	1600.07
0	571292	9980.07	1500.07
0	571293	9980.07	1400.07
0	571294	9980.07	1300.07
0	571442	9990.07	1800.07
0	571443	9990.07	1700.07
0	571444	9990.07	1600.07
0	571445	9990.07	1500.07
0	571446	9990.07	1400.07
0	571447	9990.07	1300.07
0	571581	9995.07	1945.07
0	571582	9995.07	1935.07
0	571583	9995.07	1925.07
0	571584	9995.07	1915.07
0	571585	9995.07	1905.07
0	571724	10000.07	1900.07
0	571725	10000.07	1800.07
0	571726	10000.07	1700.07
0	571727	10000.07	1600.07
0	571728	10000.07	1500.07
0	571729	10000.07	1400.07
0	571730	10000.07	1300.07
0	571899	10010.07	1900.07
0	571900	10010.07	1800.07
0	571901	10010.07	1700.07
0	571902	10010.07	1600.07
0	571903	10010.07	1500.07
0	571904	10010.07	1400.07
0	571905	10010.07	1300.07
0	572085	10020.07	2000.07
0	572086	10020.07	1900.07
0	572087	10020.07	1800.07
0	572088	10020.07	1700.07
0	572089	10020.07	1600.07
0	572090	10020.07	1500.07
0	572091	10020.07	1400.07
0	572092	10020.07	1300.07
0	572282	10030.07	2000.07
0	572283	10030.07	1900.07
0	572284	10030.07	1800.07
0	572285	10030.07	1700.07
0	572286	10030.07	1600.07
0	572287	10030.07	1500.07
0	572288	10030.07	1400.07
0	572289	10030.07	1300.07
0	572479	10040.07	2000.07
0	572480	10040.07	1900.07
0	572481	10040.07	1800.07
0	572482	10040.07	1700.07
0	572483	10040.07	1600.07
0	572484	10040.07	1500.07
0	572485	10040.07	1400.07
0	572486	10040.07	1300.07
0	572667	10050.07	1900.07
0	572668	10050.07	1800.07
0	572669	10050.07	1700.07
0	572670	10050.07	1600.07
0	572671	10050.07	1500.07
0	572672	10050.07	1400.07
0	572673	10050.07	1300.07
0	572844	10060.07	1900.07
0	572845	10060.07	1800.07
0	572846	10060.07	1700.07
0	572847	10060.07	1600.07
0	572848	10060.07	1500.07
0	572849	10060.07	1400.07
0	572850	10060.07	1300.07
0	574391	10070.07	1900.07
0	574392	10070.07	1800.07
0	574393	10070.07	1700.07
0	574394	10070.07	1600.07
0	574395	10070.07	1500.07
0	574396	10070.07	1400.07
0	574397	10070.07	1300.07
0	574568	10080.07	1900.07
0	574569	10080.07	1800.07
0	574570	10080.07	1700.07
0	574571	10080.07	1600.07
0	574572	10080.07	1500.07
0	574573	10080.07	1400.07
0	574574	10080.07	1300.07
0	574745	10090.07	1900.07
0	574746	10090.07	1800.07
0	574747	10090.07	1700.07
0	574748	10090.07	1600.07
0	574749	10090.07	1500.07
0	574750	10090.07	1400.07
0	574751	10090.07	1300.07
0	574897	10095.07	2045.07
0	574898	10095.07	2035.07
0	574899	10095.07	2025.07
0	574900	10095.07	2015.07
0	574901	10095.07	2005.07
0	575051	10100.07	2000.07
0	575052	10100.07	1900.07
0	575053	10100.07	1800.07
0	575054	10100.07	1700.07
0	575055	10100.07	1600.07
0	575056	10100.07	1500.07
0	575057	10100.07	1400.07
0	575058	10100.07	1300.07
0	575250	10110.07	2000.07
0	575251	10110.07	1900.07
0	575252	10110.07	1800.07
0	575253	10110.07	1700.07
0	575254	10110.07	1600.07
0	575255	10110.07	1500.07
0	575256	10110.07	1400.07
0	575257	10110.07	1300.07
0	575460	10120.07	2100.07
0	575461	10120.07	2000.07
0	575462	10120.07	1900.07
0	575463	10120.07	1800.07
0	575464	10120.07	1700.07
0	575465	10120.07	1600.07
0	575466	10120.07	1500.07
0	575467	10120.07	1400.07
0	575468	10120.07	1300.07
0	575681	10130.07	2100.07
0	575682	10130.07	2000.07
0	575683	10130.07	1900.07
0	575684	10130.07	1800.07
0	575685	10130.07	1700.07
0	575686	10130.07	1600.07
0	575687	10130.07	1500.07
0	575688	10130.07	1400.07
0	575689	10130.07	1300.07
0	575902	10140.07	2100.07
0	575903	10140.07	2000.07
0	575904	10140.07	1900.07
0	575905	10140.07	1800.07
0	575906	10140.07	1700.07
0	575907	10140.07	1600.07
0	575908	10140.07	1500.07
0	575909	10140.07	1400.07
0	575910	10140.07	1300.07
0	576114	10150.07	2000.07
0	576115	10150.07	1900.07
0	576116	10150.07	1800.07
0	576117	10150.07	1700.07
0	576118	10150.07	1600.07
0	576119	10150.07	1500.07
0	576120	10150.07	1400.07
0	576121	10150.07	1300.07
0	576315	10160.07	2000.07
0	576316	10160.07	1900.07
0	576317	10160.07	1800.07
0	576318	10160.07	1700.07
0	576319	10160.07	1600.07
0	576320	10160.07	1500.07
0	576321	10160.07	1400.07
0	576322	10160.07	1300.07
0	577832	10170.07	2000.07
0	577833	10170.07	1900.07
0	577834	10170.07	1800.07
0	577835	10170.07	1700.07
0	577836	10170.07	1600.07
0	577837	10170.07	1500.07
0	577838	10170.07	1400.07
0	577839	10170.07	1300.07
0	578033	10180.07	2000.07
0	578034	10180.07	1900.07
0	578035	10180.07	1800.07
0	578036	10180.07	1700.07
0	578037	10180.07	1600.07
0	578038	10180.07	1500.07
0	578039	10180.07	1400.07
0	578040	10180.07	1300.07
0	578234	10190.07	2000.07
0	578235	10190.07	1900.07
0	578236	10190.07	1800.07
0	578237	10190.07	1700.07
0	578238	10190.07	1600.07
0	578239	10190.07	1500.07
0	578240	10190.07	1400.07
0	578241	10190.07	1300.07
0	578399	10195.07	2145.07
0	578400	10195.07	2135.07
0	578401	10195.07	2125.07
0	578402	10195.07	2115.07
0	578403	10195.07	2105.07
0	578564	10200.07	2100.07
0	578565	10200.07	2000.07
0	578566	10200.07	1900.07
0	578567	10200.07	1800.07
0	578568	10200.07	1700.07
0	578569	10200.07	1600.07
0	578570	10200.07	1500.07
0	578571	10200.07	1400.07
0	578572	10200.07	1300.07
0	578787	10210.07	2100.07
0	578788	10210.07	2000.07
0	578789	10210.07	1900.07
0	578790	10210.07	1800.07
0	578791	10210.07	1700.07
0	578792	10210.07	1600.07
0	578793	10210.07	1500.07
0	578794	10210.07	1400.07
0	578795	10210.07	1300.07
0	579011	10220.07	2200.07
0	579012	10220.07	2100.07
0	579013	10220.07	2000.07
0	579014	10220.07	1900.07
0	579015	10220.07	1800.07
0	579016	10220.07	1700.07
0	579017	10220.07	1600.07
0	579018	10220.07	1500.07
0	579019	10220.07	1400.07
0	579235	10230.07	2200.07
0	579236	10230.07	2100.07
0	579237	10230.07	2000.07
0	579238	10230.07	1900.07
0	579239	10230.07	1800.07
0	579240	10230.07	1700.07
0	579241	10230.07	1600.07
0	579242	10230.07	1500.07
0	579243	10230.07	1400.07
0	579459	10240.07	2200.07
0	579460	10240.07	2100.07
0	579461	10240.07	2000.07
0	579462	10240.07	1900.07
0	579463	10240.07	1800.07
0	579464	10240.07	1700.07
0	579465	10240.07	1600.07
0	579466	10240.07	1500.07
0	579467	10240.07	1400.07
0	579674	10250.07	2100.07
0	579675	10250.07	2000.07
0	579676	10250.07	1900.07
0	579677	10250.07	1800.07
0	579678	10250.07	1700.07
0	579679	10250.07	1600.07
0	579680	10250.07	1500.07
0	579681	10250.07	1400.07
0	579878	10260.07	2100.07
0	579879	10260.07	2000.07
0	579880	10260.07	1900.07
0	579881	10260.07	1800.07
0	579882	10260.07	1700.07
0	579883	10260.07	1600.07
0	579884	10260.07	1500.07
0	579885	10260.07	1400.07
0	581398	10270.07	2100.07
0	581399	10270.07	2000.07
0	581400	10270.07	1900.07
0	581401	10270.07	1800.07
0	581402	10270.07	1700.07
0	581403	10270.07	1600.07
0	581404	10270.07	1500.07
0	581405	10270.07	1400.07
0	581602	10280.07	2100.07
0	581603	10280.07	2000.07
0	581604	10280.07	1900.07
0	581605	10280.07	1800.07
0	581606	10280.07	1700.07
0	581607	10280.07	1600.07
0	581608	10280.07	1500.07
0	581609	10280.07	1400.07
0	581806	10290.07	2100.07
0	581807	10290.07	2000.07
0	581808	10290.07	1900.07
0	581809	10290.07	1800.07
0	581810	10290.07	1700.07
0	581811	10290.07	1600.07
0	581812	10290.07	1500.07
0	581813	10290.07	1400.07
0	581973	10295.07	2245.07
0	581974	10295.07	2235.07
0	581975	10295.07	2225.07
0	581976	10295.07	2215.07
0	581977	10295.07	2205.07
0	582139	10300.07	2200.07
0	582140	10300.07	2100.07
0	582141	10300.07	2000.07
0	582142	10300.07	1900.07
0	582143	10300.07	1800.07
0	582144	10300.07	1700.07
0	582145	10300.07	1600.07
0	582146	10300.07	1500.07
0	582147	10300.07	1400.07
0	582365	10310.07	2200.07
0	582366	10310.07	2100.07
0	582367	10310.07	2000.07
0	582368	10310.07	1900.07
0	582369	10310.07	1800.07
0	582370	10310.07	1700.07
0	582371	10310.07	1600.07
0	582372	10310.07	1500.07
0	582373	10310.07	1400.07
0	582591	10320.07	2300.07
0	582592	10320.07	2200.07
0	582593	10320.07	2100.07
0	582594	10320.07	2000.07
0	582595	10320.07	1900.07
0	582596	10320.07	1800.07
0	582597	10320.07	1700.07
0	582598	10320.07	1600.07
0	582599	10320.07	1500.07
0	582817	10330.07	2300.07
0	582818	10330.07	2200.07
0	582819	10330.07	2100.07
0	582820	10330.07	2000.07
0	582821	10330.07	1900.07
0	582822	10330.07	1800.07
0	582823	10330.07	1700.07
0	582824	10330.07	1600.07
0	582825	10330.07	1500.07

