version 2
run General-0-20250112-07:38:37-77228
attr configname General
attr datetime 20250112-07:38:37
attr experiment General
attr inifile shaw.ini
attr iterationvars ""
attr iterationvarsf ""
attr measurement ""
attr network src.dtnsim
attr processid 77228
attr repetition 0
attr replication #0
attr resultdir results
attr runnumber 0
attr seedset 0
param dtnsim.central.contactsFile "\"contactPlan/shaw_contact1.txt\""
param dtnsim.nodesNumber 6
param dtnsim.node[1].icon "\"receiverdish\""
param dtnsim.node[2..5].icon "\"satellite\""
param dtnsim.node[6].icon "\"receiverdish\""
param dtnsim.node[*].dtn.routing "\"cgrModel350\""
param dtnsim.node[*].dtn.routingType "\"routeListType:allPaths-firstEnding,volumeAware:allContacts,extensionBlock:on,contactPlan:global\""
param dtnsim.node[1].app.enable true
param dtnsim.node[*].app.custodyTransfer true
param dtnsim.node[1].app.bundlesNumber "\"5000\""
param dtnsim.node[1].app.start "\"0\""
param dtnsim.node[1].app.destinationEid "\"6\""
param dtnsim.node[1].app.size "\"1500\""
param dtnsim.node[1].app.interval 0.2

vector 0 dtnsim.node[6].app appBundleReceivedDelayvec:vector ETV
attr interpolationmode none
attr source appBundleReceivedDelay
attr title "appBundleReceivedDelayvec, vector"
0	6862	45.1	45.1
0	6863	45.1	44.9
0	6864	45.1	44.7
0	6865	45.1	44.5
0	6866	45.1	44.3
0	6867	45.1	44.1
0	6868	45.1	43.9
0	6869	45.1	43.7
0	6870	45.1	43.5
0	6871	45.1	43.3
0	6872	45.1	43.1
0	6873	45.1	42.9
0	6874	45.1	42.7
0	6875	45.1	42.5
0	6876	45.1	42.3
0	6877	45.1	42.1
0	6878	45.1	41.9
0	6879	45.1	41.7
0	6880	45.1	41.5
0	6881	45.1	41.3
0	6882	45.1	41.1
0	6883	45.1	40.9
0	6884	45.1	40.7
0	6885	45.1	40.5
0	6886	45.1	40.3
0	6887	45.1	40.1
0	6888	45.1	39.9
0	6889	45.1	39.7
0	6890	45.1	39.5
0	6891	45.1	39.3
0	6892	45.1	39.1
0	6893	45.1	38.9
0	6894	45.1	38.7
0	6895	45.1	38.5
0	6896	45.1	38.3
0	6897	45.1	38.1
0	6898	45.1	37.9
0	6899	45.1	37.7
0	6900	45.1	37.5
0	6901	45.1	37.3
0	6902	45.1	37.1
0	6903	45.1	36.9
0	6904	45.1	36.7
0	6905	45.1	36.5
0	6906	45.1	36.3
0	6907	45.1	36.1
0	6908	45.1	35.9
0	6909	45.1	35.7
0	6910	45.1	35.5
0	6911	45.1	35.3
0	6912	45.1	35.1
0	6913	45.1	34.9
0	6914	45.1	34.7
0	6915	45.1	34.5
0	6916	45.1	34.3
0	6917	45.1	34.1
0	6918	45.1	33.9
0	6919	45.1	33.7
0	6920	45.1	33.5
0	6921	45.1	33.3
0	6922	45.1	33.1
0	6923	45.1	32.9
0	6924	45.1	32.7
0	6925	45.1	32.5
0	6926	45.1	32.3
0	6927	45.1	32.1
0	6928	45.1	31.9
0	6929	45.1	31.7
0	6930	45.1	31.5
0	6931	45.1	31.3
0	6932	45.1	31.1
0	6933	45.1	30.9
0	6934	45.1	30.7
0	6935	45.1	30.5
0	6936	45.1	30.3
0	6937	45.1	30.1
0	6938	45.1	29.9
0	6939	45.1	29.7
0	6940	45.1	29.5
0	6941	45.1	29.3
0	6942	45.1	29.1
0	6943	45.1	28.9
0	6944	45.1	28.7
0	6945	45.1	28.5
0	6946	45.1	28.3
0	6947	45.1	28.1
0	6948	45.1	27.9
0	6949	45.1	27.7
0	6950	45.1	27.5
0	6951	45.1	27.3
0	6952	45.1	27.1
0	6953	45.1	26.9
0	6954	45.1	26.7
0	6955	45.1	26.5
0	6956	45.1	26.3
0	6957	45.1	26.1
0	6958	45.1	25.9
0	6959	45.1	25.7
0	6960	45.1	25.5
0	6961	45.1	25.3
0	6962	45.1	25.1
0	6963	45.1	24.9
0	6964	45.1	24.7
0	6965	45.1	24.5
0	6966	45.1	24.3
0	6967	45.1	24.1
0	6968	45.1	23.9
0	6969	45.1	23.7
0	6970	45.1	23.5
0	6971	45.1	23.3
0	6972	45.1	23.1
0	6973	45.1	22.9
0	6974	45.1	22.7
0	6975	45.1	22.5
0	6976	45.1	22.3
0	6977	45.1	22.1
0	6978	45.1	21.9
0	6979	45.1	21.7
0	6980	45.1	21.5
0	6981	45.1	21.3
0	6982	45.1	21.1
0	6983	45.1	20.9
0	6984	45.1	20.7
0	6985	45.1	20.5
0	6986	45.1	20.3
0	6987	45.1	20.1
0	6988	45.1	19.9
0	6989	45.1	19.7
0	6990	45.1	19.5
0	6991	45.1	19.3
0	6992	45.1	19.1
0	6993	45.1	18.9
0	6994	45.1	18.7
0	6995	45.1	18.5
0	6996	45.1	18.3
0	6997	45.1	18.1
0	6998	45.1	17.9
0	6999	45.1	17.7
0	7000	45.1	17.5
0	7001	45.1	17.3
0	7002	45.1	17.1
0	7003	45.1	16.9
0	7004	45.1	16.7
0	7005	45.1	16.5
0	7006	45.1	16.3
0	7007	45.1	16.1
0	7008	45.1	15.9
0	7009	45.1	15.7
0	7010	45.1	15.5
0	7011	45.1	15.3
0	7012	45.1	15.1
0	7013	45.1	14.9
0	7014	45.1	14.7
0	7015	45.1	14.5
0	7016	45.1	14.3
0	7017	45.1	14.1
0	7018	45.1	13.9
0	7019	45.1	13.7
0	7020	45.1	13.5
0	7021	45.1	13.3
0	7022	45.1	13.1
0	7023	45.1	12.9
0	7024	45.1	12.7
0	7025	45.1	12.5
0	7026	45.1	12.3
0	13039	55.4	22.4
0	13040	55.4	22.2
0	13041	55.4	22
0	13042	55.4	21.8
0	13043	55.4	21.6
0	13044	55.4	21.4
0	13045	55.4	21.2
0	13046	55.4	21
0	13047	55.4	20.8
0	13048	55.4	20.6
0	13049	55.4	20.4
0	13050	55.4	20.2
0	13051	55.4	20
0	13052	55.4	19.8
0	13053	55.4	19.6
0	13054	55.4	19.4
0	13055	55.4	19.2
0	13056	55.4	19
0	13057	55.4	18.8
0	13058	55.4	18.6
0	13059	55.4	18.4
0	13060	55.4	18.2
0	13061	55.4	18
0	13062	55.4	17.8
0	13063	55.4	17.6
0	13064	55.4	17.4
0	13065	55.4	17.2
0	13066	55.4	17
0	13067	55.4	16.8
0	13068	55.4	16.6
0	13069	55.4	16.4
0	13070	55.4	16.2
0	13071	55.4	16
0	13072	55.4	15.8
0	13073	55.4	15.6
0	13074	55.4	15.4
0	13075	55.4	15.2
0	13076	55.4	15
0	13077	55.4	14.8
0	13078	55.4	14.6
0	13079	55.4	14.4
0	13080	55.4	14.2
0	13081	55.4	14
0	13082	55.4	13.8
0	13083	55.4	13.6
0	13084	55.4	13.4
0	13085	55.4	13.2
0	13086	55.4	13
0	13087	55.4	12.8
0	13088	55.4	12.6
0	13089	55.4	12.4
0	13090	55.4	12.2
0	13091	55.4	12
0	13092	55.4	11.8
0	13093	55.4	11.6
0	13094	55.4	11.4
0	13095	55.4	11.2
0	13096	55.4	11
0	13097	55.4	10.8
0	13098	55.4	10.6
0	13099	55.4	10.4
0	13100	55.4	10.2
0	13101	55.4	10
0	13102	55.4	9.8
0	13103	55.4	9.6
0	13104	55.4	9.4
0	13105	55.4	9.2
0	13106	55.4	9
0	13107	55.4	8.8
0	13108	55.4	8.6
0	13109	55.4	8.4
0	13110	55.4	8.2
0	13111	55.4	8
0	13112	55.4	7.8
0	13113	55.4	7.6
0	13114	55.4	7.4
0	13115	55.4	7.2
0	13116	55.4	7
0	13117	55.4	6.8
0	13118	55.4	6.6
0	13119	55.4	6.4
0	13120	55.4	6.2
0	13121	55.4	6
0	13122	55.4	5.8
0	13123	55.4	5.6
0	13124	55.4	5.4
0	13125	55.4	5.2
0	13126	55.4	5
0	13127	55.4	4.8
0	13128	55.4	4.6
0	13129	55.4	4.4
0	13130	55.4	4.2
0	13131	55.4	4
0	13132	55.4	3.8
0	13133	55.4	3.6
0	13134	55.4	3.4
0	13135	55.4	3.2
0	13136	55.4	3
0	13137	55.4	2.8
0	13138	55.4	2.6
0	13139	55.4	2.4
0	13140	55.4	2.2
0	13141	55.4	2
0	13142	55.4	1.8
0	13143	55.4	1.6
0	13144	55.4	1.4
0	13711	55.6	1.4
0	13753	55.8	1.4
0	13796	56	1.4
0	13832	56.2	1.4
0	14080	56.4	1.4
0	14118	56.6	1.4
0	14156	56.8	1.4
0	14195	57	1.4
0	14232	57.2	1.4
0	14268	57.4	1.4
0	14304	57.6	1.4
0	14340	57.8	1.4
0	14379	58	1.4
0	15111	58.2	1.4
0	16114	61.2	4.2
0	16115	61.2	4
0	16116	61.2	3.8
0	16117	61.2	3.6
0	16118	61.2	3.4
0	16803	69.2	11.2
0	16804	69.2	11
0	16805	69.2	10.8
0	16806	69.2	10.6
0	16807	69.2	10.4
0	16808	69.2	10.2
0	16809	69.2	10
0	16810	69.2	9.8
0	16811	69.2	9.6
0	16812	69.2	9.4
0	16813	69.2	9.2
0	16814	69.2	9
0	16815	69.2	8.8
0	16816	69.2	8.6
0	16817	69.2	8.4
0	16818	69.2	8.2
0	16819	69.2	8
0	16820	69.2	7.8
0	16821	69.2	7.6
0	19876	92.1	27.1
0	19877	92.1	26.9
0	19878	92.1	26.7
0	19879	92.1	26.5
0	19880	92.1	26.3
0	19881	92.1	26.1
0	19882	92.1	25.9
0	19883	92.1	25.7
0	19884	92.1	25.5
0	19885	92.1	25.3
0	19886	92.1	25.1
0	19887	92.1	24.9
0	19888	92.1	24.7
0	19889	92.1	24.5
0	19890	92.1	24.3
0	19891	92.1	24.1
0	19892	92.1	23.9
0	19893	92.1	23.7
0	19894	92.1	23.5
0	19895	92.1	23.3
0	19896	92.1	23.1
0	19897	92.1	22.9
0	19898	92.1	22.7
0	19899	92.1	22.5
0	19900	92.1	22.3
0	19901	92.1	22.1
0	19902	92.1	21.9
0	19903	92.1	21.7
0	19904	92.1	21.5
0	19905	92.1	21.3
0	19906	92.1	21.1
0	19907	92.1	20.9
0	19908	92.1	20.7
0	19909	92.1	20.5
0	19910	92.1	20.3
0	19911	92.1	20.1
0	19912	92.1	19.9
0	19913	92.1	19.7
0	19914	92.1	19.5
0	19915	92.1	19.3
0	19916	92.1	19.1
0	19917	92.1	18.9
0	19918	92.1	18.7
0	19919	92.1	18.5
0	19920	92.1	18.3
0	19921	92.1	18.1
0	19922	92.1	17.9
0	19923	92.1	17.7
0	19924	92.1	17.5
0	19925	92.1	17.3
0	19926	92.1	17.1
0	19927	92.1	16.9
0	19928	92.1	16.7
0	19929	92.1	16.5
0	19930	92.1	16.3
0	19931	92.1	16.1
0	19932	92.1	15.9
0	19933	92.1	15.7
0	19934	92.1	15.5
0	19935	92.1	15.3
0	19936	92.1	15.1
0	19937	92.1	14.9
0	19938	92.1	14.7
0	19939	92.1	14.5
0	19940	92.1	14.3
0	19941	92.1	14.1
0	19942	92.1	13.9
0	19943	92.1	13.7
0	19944	92.1	13.5
0	19945	92.1	13.3
0	19946	92.1	13.1
0	19947	92.1	12.9
0	19948	92.1	12.7
0	19949	92.1	12.5
0	19950	92.1	12.3
0	19951	92.1	12.1
0	19952	92.1	11.9
0	19953	92.1	11.7
0	19954	92.1	11.5
0	19955	92.1	11.3
0	19956	92.1	11.1
0	19957	92.1	10.9
0	19958	92.1	10.7
0	19959	92.1	10.5
0	19960	92.1	10.3
0	19961	92.1	10.1
0	19962	92.1	9.9
0	19963	92.1	9.7
0	19964	92.1	9.5
0	19965	92.1	9.3
0	19966	92.1	9.1
0	19967	92.1	8.9
0	19968	92.1	8.7
0	19969	92.1	8.5
0	19970	92.1	8.3
0	19971	92.1	30.3
0	19972	92.1	30.1
0	19973	92.1	29.9
0	19974	92.1	29.7
0	19975	92.1	29.5
0	19976	92.1	29.3
0	19977	92.1	29.1
0	19978	92.1	28.9
0	19979	92.1	28.7
0	19980	92.1	28.5
0	19981	92.1	28.3
0	19982	92.1	28.1
0	19983	92.1	27.9
0	19984	92.1	27.7
0	19985	92.1	27.5
0	19986	92.1	27.3
0	23025	100.1	16.1
0	23026	100.1	15.9
0	23027	100.1	15.7
0	23028	100.1	15.5
0	23029	100.1	15.3
0	23030	100.1	15.1
0	23031	100.1	14.9
0	23032	100.1	14.7
0	23033	100.1	14.5
0	23034	100.1	14.3
0	23035	100.1	14.1
0	23036	100.1	13.9
0	23037	100.1	13.7
0	23038	100.1	13.5
0	23039	100.1	13.3
0	23040	100.1	13.1
0	23041	100.1	12.9
0	23042	100.1	12.7
0	23043	100.1	12.5
0	23044	100.1	12.3
0	23045	100.1	12.1
0	23046	100.1	11.9
0	23047	100.1	11.7
0	23048	100.1	11.5
0	23049	100.1	11.3
0	23050	100.1	11.1
0	23051	100.1	10.9
0	23052	100.1	10.7
0	23053	100.1	10.5
0	23054	100.1	10.3
0	23055	100.1	10.1
0	23056	100.1	9.9
0	23057	100.1	9.7
0	23058	100.1	9.5
0	23059	100.1	9.3
0	23060	100.1	9.1
0	23061	100.1	8.9
0	23062	100.1	8.7
0	23063	100.1	8.5
0	23064	100.1	8.3
0	23065	100.1	8.1
0	23066	100.1	7.9
0	23067	100.1	7.7
0	23068	100.1	7.5
0	23069	100.1	7.3
0	23070	100.1	7.1
0	23071	100.1	6.9
0	23072	100.1	6.7
0	23073	100.1	6.5
0	23074	100.1	6.3
0	23075	100.1	6.1
0	23076	100.1	5.9
0	23077	100.1	5.7
0	23078	100.1	5.5
0	23079	100.1	5.3
0	23080	100.1	5.1
0	23081	100.1	4.9
0	23082	100.1	4.7
0	23083	100.1	4.5
0	23084	100.1	4.3
0	23085	100.1	4.1
0	23086	100.1	3.9
0	23087	100.1	3.7
0	23088	100.1	3.5
0	23089	100.1	3.3
0	23090	100.1	3.1
0	23091	100.1	2.9
0	23092	100.1	2.7
0	23093	100.1	2.5
0	23094	100.1	2.3
0	23095	100.1	2.1
0	23096	100.1	1.9
0	23097	100.1	1.7
0	23098	100.1	1.5
0	23128	100.3	1.5
0	23158	100.5	1.5
0	23188	100.7	1.5
0	23218	100.9	1.5
0	23657	101.1	1.5
0	23728	101.3	1.5
0	23747	101.4	1.4
0	23784	101.6	1.4
0	23821	101.8	1.4
0	23861	102	1.4
0	24138	102.2	1.4
0	24166	102.4	1.4
0	24194	102.6	1.4
0	24222	102.8	1.4
0	24253	103	1.4
0	24426	103.2	1.4
0	24433	103.3	1.3
0	24444	103.5	1.3
0	24455	103.7	1.3
0	24466	103.9	1.3
0	26521	109.4	6.6
0	28789	118.3	15.3
0	28790	118.3	15.1
0	28791	118.3	14.9
0	28792	118.3	14.7
0	28793	118.3	14.5
0	28794	118.3	14.3
0	28795	118.3	14.1
0	28796	118.3	13.9
0	28797	118.3	13.7
0	28798	118.3	13.5
0	28799	118.3	13.3
0	28800	118.3	13.1
0	28801	118.3	12.9
0	28802	118.3	12.7
0	28803	118.3	12.5
0	28804	118.3	12.3
0	28805	118.3	12.1
0	28806	118.3	11.9
0	28807	118.3	11.7
0	28808	118.3	11.5
0	28809	118.3	11.3
0	28810	118.3	11.1
0	28811	118.3	10.9
0	28812	118.3	10.7
0	28813	118.3	10.5
0	28814	118.3	10.3
0	28815	118.3	10.1
0	28816	118.3	9.9
0	28817	118.3	9.7
0	28818	118.3	9.5
0	28819	118.3	9.3
0	28820	118.3	9.1
0	28821	118.3	8.9
0	28822	118.3	8.7
0	28823	118.3	8.5
0	28824	118.3	8.3
0	28825	118.3	8.1
0	28826	118.3	7.9
0	28827	118.3	7.7
0	28828	118.3	7.5
0	28829	118.3	7.3
0	28830	118.3	7.1
0	28831	118.3	6.9
0	28832	118.3	6.7
0	28833	118.3	6.5
0	28834	118.3	6.3
0	28835	118.3	6.1
0	28836	118.3	5.9
0	28837	118.3	5.7
0	28838	118.3	5.5
0	28839	118.3	5.3
0	28840	118.3	5.1
0	28841	118.3	4.9
0	28842	118.3	4.7
0	28843	118.3	4.5
0	28844	118.3	4.3
0	28845	118.3	4.1
0	28846	118.3	3.9
0	28847	118.3	3.7
0	28848	118.3	3.5
0	28849	118.3	3.3
0	28850	118.3	3.1
0	28851	118.3	2.9
0	28852	118.3	2.7
0	28853	118.3	2.5
0	28854	118.3	2.3
0	28855	118.3	2.1
0	28856	118.3	1.9
0	28857	118.3	1.7
0	28858	118.3	1.5
0	28859	118.3	1.3
0	29455	118.5	1.3
0	29491	118.7	1.3
0	29527	118.9	1.3
0	29558	119.1	1.3
0	34139	136.6	17.6
0	34140	136.6	17.4
0	34141	136.6	17.2
0	34142	136.6	17
0	34143	136.6	16.8
0	34144	136.6	16.6
0	34145	136.6	16.4
0	34146	136.6	16.2
0	34147	136.6	16
0	34148	136.6	15.8
0	34149	136.6	15.6
0	34150	136.6	15.4
0	34151	136.6	15.2
0	34152	136.6	15
0	34153	136.6	14.8
0	34154	136.6	14.6
0	34155	136.6	14.4
0	34156	136.6	14.2
0	34157	136.6	14
0	34158	136.6	13.8
0	34159	136.6	13.6
0	34160	136.6	13.4
0	34161	136.6	13.2
0	34162	136.6	13
0	34163	136.6	12.8
0	34164	136.6	12.6
0	34165	136.6	12.4
0	34166	136.6	12.2
0	34167	136.6	12
0	34168	136.6	11.8
0	34169	136.6	11.6
0	34170	136.6	11.4
0	34171	136.6	11.2
0	34172	136.6	11
0	34173	136.6	10.8
0	34174	136.6	10.6
0	34175	136.6	10.4
0	34176	136.6	10.2
0	34177	136.6	10
0	34178	136.6	9.8
0	34179	136.6	9.6
0	34180	136.6	9.4
0	34181	136.6	9.2
0	34182	136.6	9
0	34183	136.6	8.8
0	34184	136.6	8.6
0	34185	136.6	18.6
0	34186	136.6	18.4
0	34187	136.6	18.2
0	34188	136.6	18
0	34189	136.6	17.8
0	34190	136.6	8.4
0	34191	136.6	8.2
0	34192	136.6	8
0	34193	136.6	7.8
0	34194	136.6	7.6
0	34195	136.6	7.4
0	34196	136.6	7.2
0	34197	136.6	7
0	34198	136.6	6.8
0	34199	136.6	6.6
0	34200	136.6	6.4
0	34201	136.6	6.2
0	34202	136.6	6
0	34203	136.6	5.8
0	34204	136.6	5.6
0	34205	136.6	5.4
0	34206	136.6	5.2
0	34207	136.6	5
0	34208	136.6	4.8
0	34209	136.6	4.6
0	34210	136.6	4.4
0	34211	136.6	4.2
0	34212	136.6	4
0	34213	136.6	3.8
0	34214	136.6	3.6
0	34215	136.6	3.4
0	34216	136.6	3.2
0	34217	136.6	3
0	34218	136.6	2.8
0	34219	136.6	2.6
0	34220	136.6	2.4
0	34221	136.6	2.2
0	34222	136.6	2
0	34223	136.6	1.8
0	34224	136.6	1.6
0	34265	136.8	1.6
0	34307	137	1.6
0	34377	137.2	1.6
0	34421	137.4	1.6
0	34647	137.6	1.6
0	34693	137.8	1.6
0	34738	138	1.6
0	36175	138.2	1.6
0	36232	138.4	1.6
0	36289	138.6	1.6
0	36346	138.8	1.6
0	36405	139	1.6
0	36460	139.2	1.6
0	38398	154.1	16.3
0	38399	154.1	16.1
0	38400	154.1	15.9
0	38401	154.1	15.7
0	38402	154.1	15.5
0	38403	154.1	15.3
0	38404	154.1	15.1
0	38405	154.1	14.9
0	38406	154.1	14.7
0	38407	154.1	14.5
0	38408	154.1	14.3
0	38409	154.1	14.1
0	38410	154.1	13.9
0	38411	154.1	13.7
0	38412	154.1	13.5
0	38413	154.1	13.3
0	38414	154.1	13.1
0	38415	154.1	12.9
0	38416	154.1	12.7
0	38417	154.1	12.5
0	38418	154.1	12.3
0	38419	154.1	12.1
0	38420	154.1	11.9
0	38421	154.1	11.7
0	38422	154.1	11.5
0	38423	154.1	11.3
0	49481	193.1	50.1
0	49482	193.1	49.9
0	49483	193.1	49.7
0	49484	193.1	49.5
0	49485	193.1	49.3
0	49486	193.1	49.1
0	49487	193.1	48.9
0	49488	193.1	48.7
0	49489	193.1	48.5
0	49490	193.1	48.3
0	49491	193.1	48.1
0	49492	193.1	47.9
0	49493	193.1	47.7
0	49494	193.1	47.5
0	49495	193.1	47.3
0	49496	193.1	47.1
0	49497	193.1	46.9
0	49498	193.1	46.7
0	49499	193.1	46.5
0	49500	193.1	46.3
0	49501	193.1	46.1
0	49502	193.1	45.9
0	49503	193.1	45.7
0	49504	193.1	45.5
0	49505	193.1	45.3
0	49506	193.1	45.1
0	49507	193.1	44.9
0	49508	193.1	44.7
0	49509	193.1	44.5
0	49510	193.1	44.3
0	49511	193.1	44.1
0	49512	193.1	43.9
0	49513	193.1	43.7
0	49514	193.1	43.5
0	49515	193.1	43.3
0	49516	193.1	43.1
0	49517	193.1	42.9
0	49518	193.1	42.7
0	49519	193.1	42.5
0	49520	193.1	42.3
0	49521	193.1	42.1
0	49522	193.1	41.9
0	49523	193.1	41.7
0	49524	193.1	41.5
0	49525	193.1	41.3
0	49526	193.1	41.1
0	49527	193.1	40.9
0	49528	193.1	40.7
0	49529	193.1	40.5
0	49530	193.1	40.3
0	49531	193.1	40.1
0	49532	193.1	39.9
0	49533	193.1	39.7
0	49534	193.1	39.5
0	49535	193.1	39.3
0	49536	193.1	39.1
0	49537	193.1	38.9
0	49538	193.1	38.7
0	49539	193.1	38.5
0	49540	193.1	38.3
0	49541	193.1	38.1
0	49542	193.1	37.9
0	49543	193.1	37.7
0	49544	193.1	37.5
0	49545	193.1	37.3
0	49546	193.1	37.1
0	49547	193.1	36.9
0	49548	193.1	36.7
0	49549	193.1	36.5
0	49550	193.1	36.3
0	49551	193.1	36.1
0	49552	193.1	35.9
0	49553	193.1	35.7
0	49554	193.1	35.5
0	49555	193.1	35.3
0	49556	193.1	35.1
0	49557	193.1	34.9
0	49558	193.1	34.7
0	49559	193.1	34.5
0	49560	193.1	34.3
0	49561	193.1	34.1
0	49562	193.1	33.9
0	49563	193.1	33.7
0	49564	193.1	33.5
0	49565	193.1	33.3
0	49566	193.1	33.1
0	49567	193.1	32.9
0	49568	193.1	32.7
0	49569	193.1	32.5
0	49570	193.1	32.3
0	49571	193.1	32.1
0	49572	193.1	31.9
0	49573	193.1	31.7
0	49574	193.1	31.5
0	49575	193.1	31.3
0	49576	193.1	31.1
0	49577	193.1	30.9
0	49578	193.1	30.7
0	49579	193.1	30.5
0	49580	193.1	30.3
0	49581	193.1	30.1
0	49582	193.1	29.9
0	49583	193.1	29.7
0	49584	193.1	29.5
0	49585	193.1	29.3
0	49586	193.1	29.1
0	49587	193.1	28.9
0	49588	193.1	28.7
0	49589	193.1	28.5
0	49590	193.1	28.3
0	49591	193.1	28.1
0	49592	193.1	27.9
0	49593	193.1	27.7
0	49594	193.1	27.5
0	49595	193.1	27.3
0	49596	193.1	27.1
0	49597	193.1	26.9
0	49598	193.1	26.7
0	49599	193.1	26.5
0	49600	193.1	26.3
0	49601	193.1	26.1
0	49602	193.1	25.9
0	49603	193.1	25.7
0	49604	193.1	25.5
0	49605	193.1	25.3
0	49606	193.1	25.1
0	49607	193.1	24.9
0	49608	193.1	24.7
0	49609	193.1	24.5
0	49610	193.1	24.3
0	49611	193.1	24.1
0	49612	193.1	23.9
0	49613	193.1	23.7
0	49614	193.1	23.5
0	49615	193.1	23.3
0	49616	193.1	23.1
0	49617	193.1	22.9
0	49618	193.1	22.7
0	49619	193.1	22.5
0	49620	193.1	22.3
0	49621	193.1	22.1
0	49622	193.1	21.9
0	49623	193.1	21.7
0	49624	193.1	21.5
0	49625	193.1	21.3
0	49626	193.1	21.1
0	49627	193.1	20.9
0	49628	193.1	20.7
0	49629	193.1	20.5
0	49630	193.1	20.3
0	49631	193.1	20.1
0	49632	193.1	19.9
0	49633	193.1	19.7
0	49634	193.1	19.5
0	49635	193.1	19.3
0	49636	193.1	19.1
0	49637	193.1	18.9
0	49638	193.1	18.7
0	49639	193.1	18.5
0	49640	193.1	18.3
0	49641	193.1	18.1
0	49642	193.1	17.9
0	49643	193.1	17.7
0	49644	193.1	17.5
0	49645	193.1	17.3
0	49646	193.1	17.1
0	49647	193.1	16.9
0	49648	193.1	16.7
0	49649	193.1	16.5
0	49650	193.1	16.3
0	49651	193.1	16.1
0	49652	193.1	15.9
0	49653	193.1	15.7
0	49654	193.1	15.5
0	49655	193.1	15.3
0	49656	193.1	15.1
0	49657	193.1	14.9
0	49658	193.1	14.7
0	49659	193.1	14.5
0	49660	193.1	14.3
0	50121	193.2	14.2
0	50122	193.2	14
0	50123	193.2	13.8
0	50124	193.2	13.6
0	50125	193.2	13.4
0	50126	193.2	13.2
0	50127	193.2	13
0	50128	193.2	12.8
0	50129	193.2	12.6
0	50130	193.2	12.4
0	50131	193.2	12.2
0	50132	193.2	12
0	50133	193.2	11.8
0	50134	193.2	11.6
0	50135	193.2	11.4
0	50136	193.2	11.2
0	50137	193.2	11
0	50138	193.2	10.8
0	50139	193.2	10.6
0	50140	193.2	10.4
0	50141	193.2	10.2
0	50142	193.2	10
0	50143	193.2	9.8
0	50144	193.2	9.6
0	50145	193.2	9.4
0	50146	193.2	9.2
0	50147	193.2	9
0	50148	193.2	8.8
0	50149	193.2	8.6
0	50150	193.2	8.4
0	50151	193.2	8.2
0	50152	193.2	8
0	50153	193.2	7.8
0	50154	193.2	7.6
0	50155	193.2	7.4
0	50156	193.2	7.2
0	50157	193.2	7
0	50158	193.2	6.8
0	50159	193.2	6.6
0	50160	193.2	6.4
0	50161	193.2	6.2
0	50162	193.2	6
0	50163	193.2	5.8
0	50164	193.2	5.6
0	50165	193.2	5.4
0	50166	193.2	5.2
0	50167	193.2	5
0	50168	193.2	4.8
0	50169	193.2	4.6
0	50436	193.4	4.6
0	50437	193.4	4.4
0	50438	193.4	4.2
0	50439	193.4	4
0	50440	193.4	3.8
0	50441	193.4	3.6
0	50442	193.4	3.4
0	50443	193.4	3.2
0	50444	193.4	3
0	50445	193.4	2.8
0	50446	193.4	2.6
0	50447	193.4	2.4
0	50448	193.4	2.2
0	50449	193.4	2
0	50450	193.4	1.8
0	50451	193.4	1.6
0	50478	193.6	1.6
0	50505	193.8	1.6
0	50535	194	1.6
0	50984	194.2	1.6
0	51830	194.4	1.6
0	60455	229.1	36.1
0	60456	229.1	35.9
0	60457	229.1	35.7
0	60458	229.1	35.5
0	60459	229.1	35.3
0	60460	229.1	35.1
0	60461	229.1	34.9
0	60462	229.1	34.7
0	60463	229.1	34.5
0	60464	229.1	34.3
0	60465	229.1	34.1
0	60466	229.1	33.9
0	60467	229.1	33.7
0	60468	229.1	33.5
0	60469	229.1	33.3
0	60470	229.1	33.1
0	60471	229.1	32.9
0	60472	229.1	32.7
0	60473	229.1	32.5
0	60474	229.1	32.3
0	60475	229.1	32.1
0	60476	229.1	31.9
0	60477	229.1	31.7
0	60478	229.1	31.5
0	60479	229.1	31.3
0	60480	229.1	31.1
0	60481	229.1	30.9
0	60482	229.1	30.7
0	60483	229.1	30.5
0	60484	229.1	30.3
0	60485	229.1	30.1
0	60486	229.1	29.9
0	60487	229.1	29.7
0	60488	229.1	29.5
0	60489	229.1	29.3
0	60490	229.1	29.1
0	60491	229.1	28.9
0	60492	229.1	28.7
0	60493	229.1	28.5
0	60494	229.1	28.3
0	60495	229.1	28.1
0	60496	229.1	27.9
0	60497	229.1	27.7
0	60498	229.1	27.5
0	60499	229.1	27.3
0	60500	229.1	27.1
0	60501	229.1	26.9
0	60502	229.1	26.7
0	60503	229.1	26.5
0	60504	229.1	26.3
0	60505	229.1	26.1
0	60506	229.1	25.9
0	60507	229.1	25.7
0	60508	229.1	25.5
0	60509	229.1	25.3
0	60510	229.1	25.1
0	60511	229.1	24.9
0	60512	229.1	24.7
0	60513	229.1	24.5
0	60514	229.1	24.3
0	60515	229.1	24.1
0	60516	229.1	23.9
0	60517	229.1	23.7
0	60518	229.1	23.5
0	60519	229.1	23.3
0	60520	229.1	23.1
0	60521	229.1	22.9
0	60522	229.1	22.7
0	60523	229.1	22.5
0	60524	229.1	22.3
0	60525	229.1	22.1
0	60526	229.1	21.9
0	60527	229.1	21.7
0	60528	229.1	21.5
0	60529	229.1	21.3
0	60530	229.1	21.1
0	60531	229.1	20.9
0	60532	229.1	20.7
0	60533	229.1	20.5
0	60534	229.1	20.3
0	60535	229.1	20.1
0	60536	229.1	19.9
0	60537	229.1	19.7
0	60538	229.1	19.5
0	60539	229.1	19.3
0	60540	229.1	19.1
0	60541	229.1	18.9
0	60542	229.1	18.7
0	60543	229.1	18.5
0	60544	229.1	18.3
0	60545	229.1	18.1
0	60546	229.1	17.9
0	60547	229.1	17.7
0	60548	229.1	17.5
0	60549	229.1	17.3
0	60550	229.1	17.1
0	60551	229.1	16.9
0	60552	229.1	16.7
0	60553	229.1	16.5
0	60554	229.1	16.3
0	60555	229.1	16.1
0	60556	229.1	15.9
0	60557	229.1	15.7
0	60558	229.1	15.5
0	60559	229.1	15.3
0	60560	229.1	15.1
0	60561	229.1	14.9
0	60562	229.1	14.7
0	60563	229.1	14.5
0	60564	229.1	14.3
0	60565	229.1	14.1
0	60566	229.1	13.9
0	60567	229.1	13.7
0	60568	229.1	13.5
0	60569	229.1	13.3
0	60570	229.1	13.1
0	60571	229.1	12.9
0	60572	229.1	12.7
0	60573	229.1	12.5
0	60574	229.1	12.3
0	60575	229.1	12.1
0	60576	229.1	11.9
0	60577	229.1	11.7
0	60578	229.1	11.5
0	60579	229.1	11.3
0	60580	229.1	11.1
0	60581	229.1	10.9
0	60582	229.1	10.7
0	60583	229.1	10.5
0	60584	229.1	10.3
0	60585	229.1	10.1
0	60586	229.1	9.9
0	60587	229.1	9.7
0	60588	229.1	9.5
0	60589	229.1	9.3
0	60590	229.1	9.1
0	60591	229.1	8.9
0	60592	229.1	8.7
0	60593	229.1	8.5
0	60594	229.1	8.3
0	60595	229.1	8.1
0	60596	229.1	7.9
0	60597	229.1	7.7
0	60598	229.1	7.5
0	60599	229.1	7.3
0	66945	270.1	48.1
0	66946	270.1	47.9
0	66947	270.1	47.7
0	66948	270.1	47.5
0	66949	270.1	47.3
0	66950	270.1	47.1
0	66951	270.1	46.9
0	66952	270.1	46.7
0	66953	270.1	46.5
0	66954	270.1	46.3
0	66955	270.1	46.1
0	66956	270.1	45.9
0	66957	270.1	45.7
0	66958	270.1	45.5
0	66959	270.1	45.3
0	66960	270.1	45.1
0	66961	270.1	44.9
0	66962	270.1	44.7
0	66963	270.1	44.5
0	66964	270.1	44.3
0	66965	270.1	44.1
0	66966	270.1	43.9
0	66967	270.1	43.7
0	66968	270.1	43.5
0	66969	270.1	43.3
0	68637	271.2	44.2
0	68638	271.2	44
0	68639	271.2	43.8
0	68640	271.2	43.6
0	68641	271.2	43.4
0	68642	271.2	43.2
0	68643	271.2	43
0	68644	271.2	42.8
0	68645	271.2	42.6
0	68646	271.2	42.4
0	68647	271.2	42.2
0	68648	271.2	42
0	68649	271.2	41.8
0	68650	271.2	41.6
0	68651	271.2	41.4
0	68652	271.2	41.2
0	68653	271.2	41
0	68654	271.2	40.8
0	68655	271.2	40.6
0	68656	271.2	40.4
0	68657	271.2	40.2
0	68658	271.2	40
0	68659	271.2	39.8
0	68660	271.2	39.6
0	68661	271.2	39.4
0	68662	271.2	39.2
0	68663	271.2	39
0	68664	271.2	38.8
0	68665	271.2	38.6
0	68666	271.2	38.4
0	68667	271.2	38.2
0	68668	271.2	38
0	68669	271.2	37.8
0	68670	271.2	37.6
0	68671	271.2	37.4
0	68672	271.2	37.2
0	68673	271.2	37
0	68674	271.2	36.8
0	68675	271.2	36.6
0	68676	271.2	36.4
0	68677	271.2	36.2
0	68678	271.2	36
0	68679	271.2	35.8
0	68680	271.2	35.6
0	68681	271.2	35.4
0	68682	271.2	35.2
0	68683	271.2	35
0	68684	271.2	34.8
0	68685	271.2	34.6
0	68686	271.2	34.4
0	68687	271.2	34.2
0	68688	271.2	34
0	68689	271.2	33.8
0	68690	271.2	33.6
0	68691	271.2	33.4
0	68692	271.2	33.2
0	68693	271.2	33
0	68694	271.2	32.8
0	68695	271.2	32.6
0	68696	271.2	32.4
0	68697	271.2	32.2
0	68698	271.2	32
0	68699	271.2	31.8
0	68700	271.2	31.6
0	68701	271.2	31.4
0	68702	271.2	31.2
0	68703	271.2	31
0	68704	271.2	30.8
0	68705	271.2	30.6
0	68706	271.2	30.4
0	68707	271.2	30.2
0	68708	271.2	30
0	68709	271.2	29.8
0	68710	271.2	29.6
0	68711	271.2	29.4
0	68712	271.2	29.2
0	68713	271.2	29
0	68714	271.2	28.8
0	68715	271.2	28.6
0	68716	271.2	28.4
0	68717	271.2	28.2
0	68718	271.2	28
0	68719	271.2	27.8
0	68720	271.2	27.6
0	68721	271.2	27.4
0	68722	271.2	27.2
0	68723	271.2	27
0	68724	271.2	26.8
0	68725	271.2	26.6
0	68726	271.2	26.4
0	68727	271.2	26.2
0	68728	271.2	26
0	68729	271.2	25.8
0	68730	271.2	25.6
0	68731	271.2	25.4
0	68732	271.2	25.2
0	68733	271.2	25
0	68734	271.2	24.8
0	68735	271.2	24.6
0	68736	271.2	24.4
0	68737	271.2	24.2
0	68738	271.2	24
0	68739	271.2	23.8
0	68740	271.2	23.6
0	68741	271.2	23.4
0	68742	271.2	23.2
0	68743	271.2	23
0	68744	271.2	22.8
0	68745	271.2	22.6
0	68746	271.2	22.4
0	68747	271.2	22.2
0	68748	271.2	22
0	68749	271.2	21.8
0	68750	271.2	21.6
0	68751	271.2	21.4
0	68752	271.2	21.2
0	68753	271.2	21
0	68754	271.2	20.8
0	68755	271.2	20.6
0	68756	271.2	20.4
0	68757	271.2	20.2
0	68758	271.2	20
0	68759	271.2	19.8
0	68760	271.2	19.6
0	68761	271.2	19.4
0	68762	271.2	19.2
0	68763	271.2	19
0	68764	271.2	18.8
0	68765	271.2	18.6
0	68766	271.2	18.4
0	68767	271.2	18.2
0	68768	271.2	18
0	68769	271.2	17.8
0	68770	271.2	17.6
0	68771	271.2	17.4
0	68772	271.2	17.2
0	68773	271.2	17
0	68774	271.2	16.8
0	68775	271.2	16.6
0	68776	271.2	16.4
0	68777	271.2	16.2
0	68778	271.2	16
0	68779	271.2	15.8
0	68780	271.2	15.6
0	68781	271.2	15.4
0	68782	271.2	15.2
0	68783	271.2	15
0	68784	271.2	14.8
0	68785	271.2	14.6
0	68786	271.2	14.4
0	68787	271.2	14.2
0	68788	271.2	14
0	68789	271.2	13.8
0	68790	271.2	13.6
0	68791	271.2	13.4
0	68792	271.2	13.2
0	68793	271.2	13
0	68794	271.2	12.8
0	68795	271.2	12.6
0	68796	271.2	12.4
0	68797	271.2	12.2
0	68798	271.2	12
0	68799	271.2	11.8
0	68800	271.2	11.6
0	68801	271.2	11.4
0	75679	296.1	36.1
0	75680	296.1	35.9
0	75681	296.1	35.7
0	75682	296.1	35.5
0	75683	296.1	35.3
0	75684	296.1	35.1
0	75685	296.1	34.9
0	75686	296.1	34.7
0	75687	296.1	34.5
0	75688	296.1	34.3
0	75689	296.1	34.1
0	75690	296.1	33.9
0	75691	296.1	33.7
0	75692	296.1	33.5
0	75693	296.1	33.3
0	75694	296.1	33.1
0	75695	296.1	32.9
0	75696	296.1	32.7
0	75697	296.1	32.5
0	75698	296.1	32.3
0	75699	296.1	32.1
0	75700	296.1	31.9
0	75701	296.1	31.7
0	75702	296.1	31.5
0	75703	296.1	31.3
0	75704	296.1	31.1
0	75705	296.1	30.9
0	75706	296.1	30.7
0	75707	296.1	30.5
0	75708	296.1	30.3
0	75709	296.1	30.1
0	75710	296.1	29.9
0	75711	296.1	29.7
0	75712	296.1	29.5
0	75713	296.1	29.3
0	75714	296.1	29.1
0	75715	296.1	28.9
0	75716	296.1	28.7
0	75717	296.1	28.5
0	75718	296.1	28.3
0	75719	296.1	28.1
0	75720	296.1	27.9
0	75721	296.1	27.7
0	75722	296.1	27.5
0	75723	296.1	27.3
0	75724	296.1	27.1
0	75725	296.1	26.9
0	75726	296.1	26.7
0	75727	296.1	26.5
0	75728	296.1	26.3
0	75729	296.1	26.1
0	75730	296.1	25.9
0	75731	296.1	25.7
0	75732	296.1	25.5
0	75733	296.1	25.3
0	75734	296.1	25.1
0	75735	296.1	24.9
0	75736	296.1	24.7
0	75737	296.1	24.5
0	75738	296.1	24.3
0	75739	296.1	24.1
0	75740	296.1	23.9
0	75741	296.1	23.7
0	75742	296.1	23.5
0	75743	296.1	23.3
0	75744	296.1	23.1
0	75745	296.1	22.9
0	75746	296.1	22.7
0	75747	296.1	22.5
0	75748	296.1	22.3
0	75749	296.1	22.1
0	75750	296.1	21.9
0	75751	296.1	21.7
0	75752	296.1	21.5
0	75753	296.1	21.3
0	75754	296.1	21.1
0	75755	296.1	20.9
0	75756	296.1	20.7
0	75757	296.1	20.5
0	75758	296.1	20.3
0	75759	296.1	20.1
0	75760	296.1	19.9
0	75761	296.1	19.7
0	75762	296.1	19.5
0	75763	296.1	19.3
0	75764	296.1	19.1
0	75765	296.1	18.9
0	75766	296.1	18.7
0	75767	296.1	18.5
0	75768	296.1	18.3
0	75769	296.1	18.1
0	75770	296.1	17.9
0	75771	296.1	17.7
0	75772	296.1	17.5
0	75773	296.1	17.3
0	75774	296.1	17.1
0	75775	296.1	16.9
0	75776	296.1	16.7
0	75777	296.1	16.5
0	75778	296.1	16.3
0	75779	296.1	16.1
0	75780	296.1	15.9
0	75781	296.1	15.7
0	75782	296.1	15.5
0	75783	296.1	15.3
0	75784	296.1	15.1
0	75785	296.1	14.9
0	75786	296.1	14.7
0	75787	296.1	14.5
0	75788	296.1	14.3
0	75789	296.1	14.1
0	75790	296.1	13.9
0	75791	296.1	13.7
0	75792	296.1	13.5
0	75793	296.1	13.3
0	75794	296.1	13.1
0	75795	296.1	12.9
0	75796	296.1	12.7
0	75797	296.1	12.5
0	75798	296.1	12.3
0	75799	296.1	12.1
0	75800	296.1	11.9
0	75801	296.1	11.7
0	75802	296.1	11.5
0	75803	296.1	11.3
0	75804	296.1	11.1
0	75805	296.1	10.9
0	75806	296.1	10.7
0	75807	296.1	10.5
0	75808	296.1	10.3
0	75809	296.1	10.1
0	75810	296.1	9.9
0	75811	296.1	9.7
0	75812	296.1	9.5
0	75813	296.1	9.3
0	75814	296.1	9.1
0	75815	296.1	8.9
0	75816	296.1	8.7
0	75817	296.1	8.5
0	75818	296.1	8.3
0	75819	296.1	8.1
0	75820	296.1	7.9
0	75821	296.1	7.7
0	75822	296.1	7.5
0	75823	296.1	7.3
0	75824	296.1	7.1
0	75825	296.1	6.9
0	75826	296.1	6.7
0	75827	296.1	6.5
0	75828	296.1	6.3
0	75829	296.1	6.1
0	75830	296.1	5.9
0	75831	296.1	5.7
0	75832	296.1	5.5
0	75833	296.1	5.3
0	75834	296.1	5.1
0	75835	296.1	4.9
0	75836	296.1	4.7
0	75837	296.1	4.5
0	75838	296.1	4.3
0	75839	296.1	4.1
0	75840	296.1	3.9
0	75841	296.1	3.7
0	75842	296.1	3.5
0	75843	296.1	3.3
0	75844	296.1	3.1
0	75845	296.1	2.9
0	75846	296.1	2.7
0	75847	296.1	2.5
0	75848	296.1	2.3
0	75849	296.1	2.1
0	75850	296.1	1.9
0	75851	296.1	1.7
0	75852	296.1	1.5
0	76736	296.2	1.4
0	76763	296.4	1.4
0	76790	296.6	1.4
0	76817	296.8	1.4
0	76843	297	1.4
0	76868	297.2	1.4
0	76892	297.4	1.4
0	76916	297.6	1.4
0	76940	297.8	1.4
0	76969	298	1.4
0	80046	305.5	8.7
0	80047	305.5	8.5
0	80048	305.5	8.3
0	80049	305.5	8.1
0	80050	305.5	7.9
0	80051	305.5	7.7
0	84240	321.2	23.2
0	84241	321.2	23
0	84242	321.2	22.8
0	84243	321.2	22.6
0	84244	321.2	22.4
0	84245	321.2	22.2
0	84246	321.2	22
0	84247	321.2	21.8
0	84248	321.2	21.6
0	84249	321.2	21.4
0	84250	321.2	21.2
0	84251	321.2	21
0	84252	321.2	20.8
0	84253	321.2	20.6
0	84254	321.2	20.4
0	84255	321.2	20.2
0	84256	321.2	20
0	84257	321.2	19.8
0	84258	321.2	19.6
0	84259	321.2	19.4
0	84260	321.2	19.2
0	84261	321.2	19
0	84262	321.2	18.8
0	84263	321.2	18.6
0	84264	321.2	18.4
0	84265	321.2	18.2
0	84266	321.2	18
0	84267	321.2	17.8
0	84268	321.2	17.6
0	84269	321.2	17.4
0	84270	321.2	17.2
0	84271	321.2	17
0	84272	321.2	16.8
0	84273	321.2	16.6
0	84274	321.2	16.4
0	84275	321.2	16.2
0	84276	321.2	16
0	84277	321.2	15.8
0	84278	321.2	15.6
0	84279	321.2	15.4
0	84280	321.2	15.2
0	84281	321.2	15
0	84282	321.2	14.8
0	84283	321.2	14.6
0	84284	321.2	14.4
0	84285	321.2	14.2
0	84286	321.2	14
0	84287	321.2	13.8
0	84288	321.2	13.6
0	84289	321.2	13.4
0	84290	321.2	13.2
0	84291	321.2	13
0	84292	321.2	12.8
0	84293	321.2	12.6
0	84294	321.2	12.4
0	84295	321.2	12.2
0	84296	321.2	12
0	84297	321.2	11.8
0	84298	321.2	11.6
0	84299	321.2	11.4
0	84300	321.2	11.2
0	84301	321.2	11
0	84302	321.2	10.8
0	84303	321.2	10.6
0	84304	321.2	10.4
0	84305	321.2	10.2
0	84306	321.2	10
0	84307	321.2	9.8
0	84308	321.2	9.6
0	84309	321.2	9.4
0	84310	321.2	9.2
0	84311	321.2	9
0	84312	321.2	8.8
0	84313	321.2	8.6
0	84314	321.2	8.4
0	84315	321.2	8.2
0	84316	321.2	8
0	84317	321.2	7.8
0	84318	321.2	7.6
0	84319	321.2	7.4
0	84320	321.2	7.2
0	84321	321.2	7
0	84322	321.2	6.8
0	84323	321.2	6.6
0	84324	321.2	6.4
0	84325	321.2	6.2
0	84326	321.2	6
0	84327	321.2	5.8
0	84328	321.2	5.6
0	84329	321.2	5.4
0	84330	321.2	5.2
0	84331	321.2	5
0	84332	321.2	4.8
0	84333	321.2	4.6
0	84334	321.2	4.4
0	84335	321.2	4.2
0	84336	321.2	4
0	84337	321.2	3.8
0	84338	321.2	3.6
0	84339	321.2	3.4
0	84340	321.2	3.2
0	84341	321.2	3
0	84342	321.2	2.8
0	84343	321.2	2.6
0	84344	321.2	2.4
0	84345	321.2	2.2
0	84346	321.2	2
0	84347	321.2	1.8
0	84348	321.2	1.6
0	84349	321.2	1.4
0	85912	326.3	6.3
0	85913	326.3	6.1
0	85914	326.3	5.9
0	85915	326.3	5.7
0	85916	326.3	5.5
0	85917	326.3	5.3
0	85918	326.3	5.1
0	85919	326.3	4.9
0	85920	326.3	4.7
0	85921	326.3	4.5
0	85922	326.3	4.3
0	85923	326.3	4.1
0	85924	326.3	3.9
0	85925	326.3	3.7
0	85926	326.3	3.5
0	85927	326.3	3.3
0	85928	326.3	3.1
0	85929	326.3	2.9
0	85930	326.3	2.7
0	85931	326.3	2.5
0	90153	355.2	31.2
0	90154	355.2	31
0	90155	355.2	30.8
0	90156	355.2	30.6
0	90157	355.2	30.4
0	90158	355.2	30.2
0	90159	355.2	30
0	90160	355.2	29.8
0	90161	355.2	29.6
0	90162	355.2	29.4
0	90163	355.2	29.2
0	90164	355.2	29
0	90165	355.2	28.8
0	90166	355.2	28.6
0	90167	355.2	28.4
0	90168	355.2	28.2
0	90169	355.2	28
0	90170	355.2	27.8
0	90171	355.2	27.6
0	90172	355.2	27.4
0	90173	355.2	27.2
0	90174	355.2	27
0	90175	355.2	26.8
0	90176	355.2	26.6
0	90177	355.2	26.4
0	90178	355.2	26.2
0	90179	355.2	26
0	90180	355.2	25.8
0	90181	355.2	25.6
0	90182	355.2	25.4
0	90183	355.2	25.2
0	90184	355.2	25
0	90185	355.2	24.8
0	90186	355.2	24.6
0	90187	355.2	24.4
0	90188	355.2	24.2
0	90189	355.2	24
0	90190	355.2	23.8
0	90191	355.2	23.6
0	90192	355.2	23.4
0	90193	355.2	23.2
0	90194	355.2	23
0	90195	355.2	22.8
0	90196	355.2	22.6
0	90197	355.2	22.4
0	90198	355.2	22.2
0	90199	355.2	22
0	90200	355.2	21.8
0	90201	355.2	21.6
0	90202	355.2	21.4
0	90203	355.2	21.2
0	90204	355.2	21
0	90205	355.2	20.8
0	90206	355.2	20.6
0	90207	355.2	20.4
0	90208	355.2	20.2
0	90209	355.2	20
0	90210	355.2	19.8
0	90211	355.2	19.6
0	90212	355.2	19.4
0	90213	355.2	19.2
0	90214	355.2	19
0	90215	355.2	18.8
0	90216	355.2	18.6
0	90217	355.2	18.4
0	90218	355.2	18.2
0	90219	355.2	18
0	90220	355.2	17.8
0	90221	355.2	17.6
0	90222	355.2	17.4
0	90223	355.2	17.2
0	90224	355.2	17
0	90225	355.2	16.8
0	90226	355.2	16.6
0	90227	355.2	16.4
0	90228	355.2	16.2
0	90229	355.2	16
0	90230	355.2	15.8
0	90231	355.2	15.6
0	90232	355.2	15.4
0	90233	355.2	15.2
0	90234	355.2	15
0	90235	355.2	14.8
0	90236	355.2	14.6
0	90237	355.2	14.4
0	90238	355.2	14.2
0	90239	355.2	14
0	90240	355.2	13.8
0	90241	355.2	13.6
0	90242	355.2	13.4
0	90243	355.2	13.2
0	90244	355.2	13
0	90245	355.2	12.8
0	90246	355.2	12.6
0	90247	355.2	12.4
0	90248	355.2	12.2
0	90249	355.2	12
0	90250	355.2	11.8
0	90251	355.2	11.6
0	90252	355.2	11.4
0	90253	355.2	11.2
0	90254	355.2	11
0	90255	355.2	10.8
0	90256	355.2	10.6
0	90257	355.2	10.4
0	90258	355.2	10.2
0	90259	355.2	10
0	90260	355.2	9.8
0	90261	355.2	9.6
0	90262	355.2	9.4
0	90263	355.2	9.2
0	90264	355.2	9
0	90265	355.2	8.8
0	90266	355.2	8.6
0	90267	355.2	8.4
0	90268	355.2	8.2
0	90269	355.2	8
0	90270	355.2	7.8
0	90271	355.2	7.6
0	90272	355.2	7.4
0	90273	355.2	7.2
0	90274	355.2	7
0	90275	355.2	6.8
0	90276	355.2	6.6
0	90277	355.2	6.4
0	97082	390.1	41.1
0	97083	390.1	40.9
0	97084	390.1	40.7
0	97085	390.1	40.5
0	97086	390.1	40.3
0	97087	390.1	40.1
0	97088	390.1	39.9
0	97089	390.1	39.7
0	97090	390.1	39.5
0	97091	390.1	39.3
0	97092	390.1	39.1
0	97093	390.1	38.9
0	97094	390.1	38.7
0	97095	390.1	38.5
0	97096	390.1	38.3
0	97097	390.1	38.1
0	97098	390.1	37.9
0	97099	390.1	37.7
0	97100	390.1	37.5
0	97101	390.1	37.3
0	97102	390.1	37.1
0	97103	390.1	36.9
0	97104	390.1	36.7
0	97105	390.1	36.5
0	97106	390.1	36.3
0	97107	390.1	36.1
0	97108	390.1	35.9
0	97109	390.1	35.7
0	97110	390.1	35.5
0	97111	390.1	35.3
0	97112	390.1	35.1
0	97113	390.1	34.9
0	97114	390.1	34.7
0	97115	390.1	34.5
0	97116	390.1	34.3
0	97117	390.1	34.1
0	97118	390.1	33.9
0	97119	390.1	33.7
0	97120	390.1	33.5
0	97121	390.1	33.3
0	97122	390.1	33.1
0	97123	390.1	32.9
0	97124	390.1	32.7
0	97125	390.1	32.5
0	97126	390.1	32.3
0	97127	390.1	32.1
0	97128	390.1	31.9
0	97129	390.1	31.7
0	97130	390.1	31.5
0	97131	390.1	31.3
0	97132	390.1	31.1
0	97133	390.1	30.9
0	97134	390.1	30.7
0	97135	390.1	30.5
0	97136	390.1	30.3
0	97137	390.1	30.1
0	97138	390.1	29.9
0	97139	390.1	29.7
0	97140	390.1	29.5
0	97141	390.1	29.3
0	97142	390.1	29.1
0	97143	390.1	28.9
0	97144	390.1	28.7
0	97145	390.1	28.5
0	97146	390.1	28.3
0	97147	390.1	28.1
0	97148	390.1	27.9
0	97149	390.1	27.7
0	97150	390.1	27.5
0	97151	390.1	27.3
0	97152	390.1	27.1
0	97153	390.1	26.9
0	97154	390.1	26.7
0	97155	390.1	26.5
0	97156	390.1	26.3
0	97157	390.1	26.1
0	97158	390.1	25.9
0	97159	390.1	25.7
0	97160	390.1	25.5
0	97161	390.1	25.3
0	97162	390.1	25.1
0	97163	390.1	24.9
0	97164	390.1	24.7
0	97165	390.1	24.5
0	97166	390.1	24.3
0	97167	390.1	24.1
0	97168	390.1	23.9
0	97169	390.1	23.7
0	97170	390.1	23.5
0	97171	390.1	23.3
0	97172	390.1	23.1
0	97173	390.1	22.9
0	97174	390.1	22.7
0	97175	390.1	22.5
0	97176	390.1	22.3
0	97177	390.1	22.1
0	97178	390.1	21.9
0	97179	390.1	21.7
0	97180	390.1	21.5
0	97181	390.1	21.3
0	97182	390.1	21.1
0	97183	390.1	20.9
0	97184	390.1	20.7
0	97185	390.1	20.5
0	97186	390.1	20.3
0	97187	390.1	20.1
0	97188	390.1	19.9
0	97189	390.1	19.7
0	97190	390.1	19.5
0	97191	390.1	19.3
0	97192	390.1	19.1
0	97193	390.1	18.9
0	97194	390.1	18.7
0	97195	390.1	18.5
0	97196	390.1	18.3
0	97197	390.1	18.1
0	97198	390.1	17.9
0	97199	390.1	17.7
0	97200	390.1	17.5
0	97201	390.1	17.3
0	97202	390.1	17.1
0	97203	390.1	16.9
0	97204	390.1	16.7
0	97205	390.1	16.5
0	97206	390.1	16.3
0	97207	390.1	16.1
0	97208	390.1	15.9
0	97209	390.1	15.7
0	97210	390.1	15.5
0	97211	390.1	15.3
0	97212	390.1	15.1
0	97213	390.1	14.9
0	97214	390.1	14.7
0	97215	390.1	14.5
0	97216	390.1	14.3
0	97217	390.1	14.1
0	97218	390.1	13.9
0	97219	390.1	13.7
0	97220	390.1	13.5
0	97221	390.1	13.3
0	97222	390.1	13.1
0	97223	390.1	12.9
0	97224	390.1	12.7
0	97225	390.1	12.5
0	97226	390.1	12.3
0	97227	390.1	12.1
0	97228	390.1	11.9
0	97229	390.1	11.7
0	97230	390.1	11.5
0	97231	390.1	11.3
0	97232	390.1	11.1
0	97233	390.1	10.9
0	97234	390.1	10.7
0	97235	390.1	10.5
0	97236	390.1	10.3
0	97237	390.1	10.1
0	97238	390.1	9.9
0	97239	390.1	9.7
0	97240	390.1	9.5
0	97241	390.1	9.3
0	98186	390.2	9.2
0	98187	390.2	9
0	98188	390.2	8.8
0	98189	390.2	8.6
0	98190	390.2	8.4
0	98191	390.2	8.2
0	98192	390.2	8
0	98193	390.2	7.8
0	98194	390.2	7.6
0	98195	390.2	7.4
0	98196	390.2	7.2
0	98197	390.2	7
0	98198	390.2	6.8
0	98199	390.2	6.6
0	102922	406.1	21.1
0	102923	406.1	20.9
0	102924	406.1	20.7
0	102925	406.1	20.5
0	102926	406.1	20.3
0	102927	406.1	20.1
0	102928	406.1	19.9
0	102929	406.1	19.7
0	102930	406.1	19.5
0	102931	406.1	19.3
0	102932	406.1	19.1
0	102933	406.1	18.9
0	102934	406.1	18.7
0	102935	406.1	18.5
0	102936	406.1	18.3
0	102937	406.1	18.1
0	102938	406.1	17.9
0	102939	406.1	17.7
0	102940	406.1	17.5
0	102941	406.1	17.3
0	102942	406.1	17.1
0	102943	406.1	16.9
0	102944	406.1	16.7
0	102945	406.1	16.5
0	102946	406.1	16.3
0	102947	406.1	16.1
0	102948	406.1	15.9
0	102949	406.1	15.7
0	102950	406.1	15.5
0	102951	406.1	15.3
0	102952	406.1	15.1
0	102953	406.1	14.9
0	102954	406.1	14.7
0	102955	406.1	14.5
0	102956	406.1	14.3
0	102957	406.1	14.1
0	102958	406.1	13.9
0	102959	406.1	13.7
0	102960	406.1	13.5
0	102961	406.1	13.3
0	102962	406.1	13.1
0	102963	406.1	12.9
0	102964	406.1	12.7
0	102965	406.1	12.5
0	102966	406.1	12.3
0	102967	406.1	12.1
0	102968	406.1	11.9
0	102969	406.1	11.7
0	102970	406.1	11.5
0	102971	406.1	11.3
0	102972	406.1	11.1
0	102973	406.1	10.9
0	102974	406.1	10.7
0	102975	406.1	10.5
0	102976	406.1	10.3
0	102977	406.1	10.1
0	102978	406.1	9.9
0	102979	406.1	9.7
0	102980	406.1	9.5
0	102981	406.1	9.3
0	102982	406.1	22.3
0	102983	406.1	22.1
0	102984	406.1	21.9
0	102985	406.1	21.7
0	102986	406.1	21.5
0	102987	406.1	21.3
0	107429	422.1	25.1
0	107430	422.1	24.9
0	107431	422.1	24.7
0	107432	422.1	24.5
0	107433	422.1	24.3
0	107434	422.1	24.1
0	107435	422.1	23.9
0	107436	422.1	23.7
0	107437	422.1	23.5
0	107438	422.1	23.3
0	107439	422.1	23.1
0	107440	422.1	22.9
0	107441	422.1	22.7
0	107442	422.1	22.5
0	107443	422.1	22.3
0	107444	422.1	22.1
0	107445	422.1	21.9
0	107446	422.1	21.7
0	107447	422.1	21.5
0	107448	422.1	21.3
0	107449	422.1	21.1
0	107450	422.1	20.9
0	107451	422.1	20.7
0	107452	422.1	20.5
0	107453	422.1	20.3
0	107454	422.1	20.1
0	107455	422.1	19.9
0	107456	422.1	19.7
0	107457	422.1	19.5
0	107458	422.1	19.3
0	107459	422.1	19.1
0	107460	422.1	18.9
0	107461	422.1	18.7
0	107462	422.1	18.5
0	107463	422.1	18.3
0	107464	422.1	18.1
0	107465	422.1	17.9
0	107466	422.1	17.7
0	107467	422.1	17.5
0	107468	422.1	17.3
0	107469	422.1	17.1
0	107470	422.1	16.9
0	107471	422.1	16.7
0	107472	422.1	16.5
0	107473	422.1	16.3
0	107474	422.1	16.1
0	107475	422.1	15.9
0	107476	422.1	15.7
0	107477	422.1	15.5
0	107478	422.1	15.3
0	107479	422.1	15.1
0	107480	422.1	14.9
0	107481	422.1	14.7
0	107482	422.1	14.5
0	107483	422.1	14.3
0	107484	422.1	14.1
0	107485	422.1	13.9
0	107486	422.1	13.7
0	107487	422.1	13.5
0	107488	422.1	13.3
0	107489	422.1	13.1
0	107490	422.1	12.9
0	107491	422.1	12.7
0	107492	422.1	12.5
0	107493	422.1	12.3
0	107494	422.1	12.1
0	107495	422.1	11.9
0	107496	422.1	11.7
0	107497	422.1	11.5
0	107498	422.1	11.3
0	107499	422.1	11.1
0	107500	422.1	10.9
0	107501	422.1	10.7
0	107502	422.1	10.5
0	107503	422.1	10.3
0	107504	422.1	10.1
0	107505	422.1	9.9
0	107506	422.1	9.7
0	107507	422.1	9.5
0	107508	422.1	9.3
0	107509	422.1	9.1
0	107510	422.1	8.9
0	107511	422.1	8.7
0	107512	422.1	8.5
0	107513	422.1	8.3
0	107514	422.1	8.1
0	107515	422.1	7.9
0	107516	422.1	7.7
0	107517	422.1	7.5
0	107518	422.1	7.3
0	107519	422.1	7.1
0	107520	422.1	6.9
0	107521	422.1	6.7
0	107522	422.1	6.5
0	107523	422.1	6.3
0	107524	422.1	6.1
0	107525	422.1	5.9
0	107526	422.1	5.7
0	107527	422.1	5.5
0	107528	422.1	5.3
0	107529	422.1	5.1
0	107530	422.1	4.9
0	107531	422.1	4.7
0	107532	422.1	4.5
0	107533	422.1	4.3
0	112415	432.1	14.1
0	112416	432.1	13.9
0	112417	432.1	13.7
0	112418	432.1	13.5
0	112419	432.1	13.3
0	112420	432.1	13.1
0	112421	432.1	12.9
0	112422	432.1	12.7
0	112423	432.1	12.5
0	112424	432.1	12.3
0	112425	432.1	12.1
0	112426	432.1	11.9
0	112427	432.1	11.7
0	112428	432.1	11.5
0	112429	432.1	11.3
0	112430	432.1	11.1
0	112431	432.1	10.9
0	112432	432.1	10.7
0	112433	432.1	10.5
0	112434	432.1	10.3
0	112435	432.1	10.1
0	112436	432.1	9.9
0	112437	432.1	9.7
0	112438	432.1	9.5
0	112439	432.1	9.3
0	112440	432.1	9.1
0	112441	432.1	8.9
0	112442	432.1	8.7
0	112443	432.1	8.5
0	112444	432.1	8.3
0	112445	432.1	8.1
0	112446	432.1	7.9
0	112447	432.1	7.7
0	112448	432.1	7.5
0	112449	432.1	7.3
0	112450	432.1	7.1
0	112451	432.1	6.9
0	112452	432.1	6.7
0	112453	432.1	6.5
0	112454	432.1	6.3
0	112455	432.1	6.1
0	112456	432.1	5.9
0	112457	432.1	5.7
0	112458	432.1	5.5
0	112459	432.1	5.3
0	112460	432.1	5.1
0	112461	432.1	4.9
0	112462	432.1	4.7
0	112463	432.1	4.5
0	112464	432.1	4.3
0	112465	432.1	4.1
0	112466	432.1	3.9
0	112467	432.1	3.7
0	112468	432.1	3.5
0	112469	432.1	3.3
0	112470	432.1	3.1
0	112471	432.1	2.9
0	112472	432.1	2.7
0	112473	432.1	2.5
0	112474	432.1	2.3
0	112475	432.1	2.1
0	112476	432.1	1.9
0	112477	432.1	1.7
0	112478	432.1	1.5
0	112811	435.1	4.3
0	112812	435.1	4.1
0	112813	435.1	3.9
0	112814	435.1	3.7
0	112815	435.1	3.5
0	112816	435.1	3.3
0	112817	435.1	3.1
0	112818	435.1	2.9
0	112819	435.1	2.7
0	112820	435.1	2.5
0	112821	435.1	2.3
0	112822	435.1	2.1
0	112823	435.1	1.9
0	112824	435.1	1.7
0	112825	435.1	1.5
0	112826	435.1	1.3
0	112838	435.3	1.3
0	112850	435.5	1.3
0	112862	435.7	1.3
0	112874	435.9	1.3
0	113208	436.1	1.3
0	114678	444.2	9.2
0	114679	444.2	9
0	114680	444.2	8.8
0	114681	444.2	8.6
0	114682	444.2	8.4
0	114683	444.2	8.2
0	114684	444.2	8
0	114685	444.2	7.8
0	114686	444.2	7.6
0	114687	444.2	7.4
0	114688	444.2	7.2
0	114689	444.2	7
0	114690	444.2	6.8
0	114691	444.2	6.6
0	114692	444.2	6.4
0	114693	444.2	6.2
0	114694	444.2	6
0	114695	444.2	5.8
0	114696	444.2	5.6
0	114697	444.2	5.4
0	114698	444.2	5.2
0	114699	444.2	5
0	114700	444.2	4.8
0	114701	444.2	4.6
0	114702	444.2	4.4
0	114703	444.2	4.2
0	114704	444.2	4
0	114705	444.2	3.8
0	114706	444.2	3.6
0	114707	444.2	3.4
0	114708	444.2	3.2
0	114709	444.2	3
0	114710	444.2	2.8
0	114711	444.2	2.6
0	114712	444.2	2.4
0	120788	467.1	25.1
0	120789	467.1	24.9
0	120790	467.1	24.7
0	120791	467.1	24.5
0	120792	467.1	24.3
0	120793	467.1	24.1
0	120794	467.1	23.9
0	120795	467.1	23.7
0	120796	467.1	23.5
0	120797	467.1	23.3
0	120798	467.1	23.1
0	120799	467.1	22.9
0	120800	467.1	22.7
0	120801	467.1	22.5
0	120802	467.1	22.3
0	120803	467.1	22.1
0	120804	467.1	21.9
0	120805	467.1	21.7
0	120806	467.1	21.5
0	120807	467.1	21.3
0	120808	467.1	21.1
0	120809	467.1	20.9
0	120810	467.1	20.7
0	120811	467.1	20.5
0	120812	467.1	20.3
0	120813	467.1	20.1
0	120814	467.1	19.9
0	120815	467.1	19.7
0	120816	467.1	19.5
0	120817	467.1	19.3
0	120818	467.1	19.1
0	120819	467.1	18.9
0	120820	467.1	18.7
0	120821	467.1	18.5
0	120822	467.1	18.3
0	120823	467.1	18.1
0	120824	467.1	17.9
0	120825	467.1	17.7
0	120826	467.1	17.5
0	120827	467.1	17.3
0	120828	467.1	17.1
0	120829	467.1	16.9
0	120830	467.1	16.7
0	120831	467.1	16.5
0	120832	467.1	16.3
0	120833	467.1	16.1
0	120834	467.1	15.9
0	120835	467.1	15.7
0	120836	467.1	15.5
0	120837	467.1	15.3
0	120838	467.1	15.1
0	120839	467.1	14.9
0	120840	467.1	14.7
0	120841	467.1	14.5
0	120842	467.1	14.3
0	120843	467.1	14.1
0	120844	467.1	13.9
0	120845	467.1	13.7
0	120846	467.1	13.5
0	120847	467.1	13.3
0	120848	467.1	13.1
0	120849	467.1	12.9
0	120850	467.1	12.7
0	120851	467.1	12.5
0	120852	467.1	12.3
0	120853	467.1	12.1
0	120854	467.1	11.9
0	120855	467.1	11.7
0	120856	467.1	11.5
0	120857	467.1	11.3
0	120858	467.1	11.1
0	120859	467.1	10.9
0	120860	467.1	10.7
0	120861	467.1	10.5
0	120862	467.1	10.3
0	120863	467.1	10.1
0	120864	467.1	9.9
0	120865	467.1	9.7
0	120866	467.1	9.5
0	120867	467.1	9.3
0	120868	467.1	9.1
0	120869	467.1	8.9
0	120870	467.1	8.7
0	120871	467.1	8.5
0	120872	467.1	8.3
0	120873	467.1	8.1
0	120874	467.1	7.9
0	120875	467.1	7.7
0	120876	467.1	7.5
0	120877	467.1	7.3
0	120878	467.1	7.1
0	120879	467.1	6.9
0	120880	467.1	6.7
0	120881	467.1	6.5
0	120882	467.1	6.3
0	120883	467.1	6.1
0	120884	467.1	5.9
0	120885	467.1	5.7
0	120886	467.1	5.5
0	120887	467.1	5.3
0	120888	467.1	5.1
0	120889	467.1	4.9
0	120890	467.1	4.7
0	120891	467.1	4.5
0	120892	467.1	4.3
0	120893	467.1	4.1
0	120894	467.1	3.9
0	120895	467.1	3.7
0	120896	467.1	3.5
0	120897	467.1	3.3
0	121587	468.4	4.4
0	121588	468.4	4.2
0	121589	468.4	4
0	121590	468.4	3.8
0	121591	468.4	3.6
0	121592	468.4	3.4
0	121593	468.4	3.2
0	121594	468.4	3
0	121595	468.4	2.8
0	121596	468.4	2.6
0	121597	468.4	2.4
0	121598	468.4	2.2
0	121599	468.4	2
0	121600	468.4	1.8
0	121601	468.4	1.6
0	121602	468.4	1.4
0	121649	468.6	1.4
0	121696	468.8	1.4
0	121746	469	1.4
0	122541	469.2	1.4
0	122701	469.4	1.4
0	122766	469.6	1.4
0	122831	469.8	1.4
0	122900	470	1.4
0	128188	498.1	28.1
0	128189	498.1	27.9
0	128190	498.1	27.7
0	128191	498.1	27.5
0	128192	498.1	27.3
0	128193	498.1	27.1
0	128194	498.1	26.9
0	128195	498.1	26.7
0	128196	498.1	26.5
0	128197	498.1	26.3
0	128198	498.1	29.3
0	128199	498.1	29.1
0	128200	498.1	28.9
0	128201	498.1	28.7
0	128202	498.1	28.5
0	128203	498.1	28.3
0	128204	498.1	26.1
0	128205	498.1	25.9
0	128206	498.1	25.7
0	128207	498.1	25.5
0	128208	498.1	25.3
0	128209	498.1	25.1
0	128210	498.1	24.9
0	128211	498.1	24.7
0	128212	498.1	24.5
0	128213	498.1	24.3
0	128214	498.1	24.1
0	128215	498.1	23.9
0	128216	498.1	23.7
0	128217	498.1	23.5
0	128218	498.1	23.3
0	128219	498.1	23.1
0	128220	498.1	22.9
0	128221	498.1	22.7
0	128222	498.1	22.5
0	128223	498.1	22.3
0	128224	498.1	22.1
0	128225	498.1	21.9
0	128226	498.1	21.7
0	128227	498.1	21.5
0	128228	498.1	21.3
0	130502	502.2	25.2
0	130503	502.2	25
0	130504	502.2	24.8
0	130505	502.2	24.6
0	130506	502.2	24.4
0	130507	502.2	24.2
0	130508	502.2	24
0	130509	502.2	23.8
0	130510	502.2	23.6
0	130511	502.2	23.4
0	130512	502.2	23.2
0	130513	502.2	23
0	130514	502.2	22.8
0	130515	502.2	22.6
0	130516	502.2	22.4
0	130517	502.2	22.2
0	130518	502.2	22
0	130519	502.2	21.8
0	130520	502.2	21.6
0	130521	502.2	21.4
0	130522	502.2	21.2
0	130523	502.2	21
0	130524	502.2	20.8
0	130525	502.2	20.6
0	130526	502.2	20.4
0	130527	502.2	20.2
0	130528	502.2	20
0	130529	502.2	19.8
0	130530	502.2	19.6
0	130531	502.2	19.4
0	130532	502.2	19.2
0	130533	502.2	19
0	130534	502.2	18.8
0	130535	502.2	18.6
0	130536	502.2	18.4
0	130537	502.2	18.2
0	130538	502.2	18
0	130539	502.2	17.8
0	130540	502.2	17.6
0	130541	502.2	17.4
0	130542	502.2	17.2
0	130543	502.2	17
0	130544	502.2	16.8
0	130545	502.2	16.6
0	130546	502.2	16.4
0	130547	502.2	16.2
0	130548	502.2	16
0	130549	502.2	15.8
0	130550	502.2	15.6
0	130551	502.2	15.4
0	130552	502.2	15.2
0	130553	502.2	15
0	130554	502.2	14.8
0	130555	502.2	14.6
0	130556	502.2	14.4
0	130557	502.2	14.2
0	130558	502.2	14
0	130559	502.2	13.8
0	130560	502.2	13.6
0	130561	502.2	13.4
0	130562	502.2	13.2
0	130563	502.2	13
0	130564	502.2	12.8
0	130565	502.2	12.6
0	130566	502.2	12.4
0	130567	502.2	12.2
0	130568	502.2	12
0	130569	502.2	11.8
0	130570	502.2	11.6
0	130571	502.2	11.4
0	130572	502.2	11.2
0	130573	502.2	11
0	130574	502.2	10.8
0	130575	502.2	10.6
0	130576	502.2	10.4
0	130577	502.2	10.2
0	130578	502.2	10
0	130579	502.2	9.8
0	130580	502.2	9.6
0	130581	502.2	9.4
0	130582	502.2	9.2
0	130583	502.2	9
0	130584	502.2	8.8
0	130585	502.2	8.6
0	130586	502.2	8.4
0	130587	502.2	8.2
0	130588	502.2	8
0	130589	502.2	7.8
0	130590	502.2	7.6
0	130591	502.2	7.4
0	130592	502.2	7.2
0	130593	502.2	7
0	130594	502.2	6.8
0	130595	502.2	6.6
0	130596	502.2	6.4
0	130597	502.2	6.2
0	130598	502.2	6
0	130599	502.2	5.8
0	130600	502.2	5.6
0	130601	502.2	5.4
0	136093	521.4	24.4
0	136094	521.4	24.2
0	136095	521.4	24
0	136096	521.4	23.8
0	136097	521.4	23.6
0	136098	521.4	23.4
0	136099	521.4	23.2
0	136100	521.4	23
0	136101	521.4	22.8
0	136102	521.4	22.6
0	136103	521.4	22.4
0	136104	521.4	22.2
0	136105	521.4	22
0	136106	521.4	21.8
0	136107	521.4	21.6
0	136108	521.4	21.4
0	136109	521.4	21.2
0	136110	521.4	21
0	136111	521.4	20.8
0	136112	521.4	20.6
0	136113	521.4	20.4
0	136114	521.4	20.2
0	136115	521.4	20
0	136116	521.4	19.8
0	136117	521.4	19.6
0	136118	521.4	19.4
0	136119	521.4	19.2
0	136120	521.4	19
0	136121	521.4	18.8
0	136122	521.4	18.6
0	136123	521.4	18.4
0	136124	521.4	18.2
0	136125	521.4	18
0	136126	521.4	17.8
0	136127	521.4	17.6
0	136128	521.4	17.4
0	136129	521.4	17.2
0	136130	521.4	17
0	136131	521.4	16.8
0	136132	521.4	16.6
0	136133	521.4	16.4
0	136134	521.4	16.2
0	136135	521.4	16
0	136136	521.4	15.8
0	136137	521.4	15.6
0	136138	521.4	15.4
0	136139	521.4	15.2
0	136140	521.4	15
0	136141	521.4	14.8
0	136142	521.4	14.6
0	136143	521.4	14.4
0	136144	521.4	14.2
0	136145	521.4	14
0	136146	521.4	13.8
0	136147	521.4	13.6
0	136148	521.4	13.4
0	136149	521.4	13.2
0	136150	521.4	13
0	136151	521.4	12.8
0	136152	521.4	12.6
0	136153	521.4	12.4
0	136154	521.4	12.2
0	136155	521.4	12
0	136156	521.4	11.8
0	136157	521.4	11.6
0	136158	521.4	11.4
0	136159	521.4	11.2
0	136160	521.4	11
0	136161	521.4	10.8
0	136162	521.4	10.6
0	136163	521.4	10.4
0	136164	521.4	10.2
0	136165	521.4	10
0	136166	521.4	9.8
0	136167	521.4	9.6
0	136168	521.4	9.4
0	136169	521.4	9.2
0	136170	521.4	9
0	136171	521.4	8.8
0	136172	521.4	8.6
0	136173	521.4	8.4
0	136174	521.4	8.2
0	136175	521.4	8
0	136176	521.4	7.8
0	136177	521.4	7.6
0	136178	521.4	7.4
0	136179	521.4	7.2
0	136180	521.4	7
0	136181	521.4	6.8
0	136182	521.4	6.6
0	136183	521.4	6.4
0	136184	521.4	6.2
0	136185	521.4	6
0	136186	521.4	5.8
0	136187	521.4	5.6
0	136188	521.4	5.4
0	136189	521.4	5.2
0	136190	521.4	5
0	136191	521.4	4.8
0	136192	521.4	4.6
0	136193	521.4	4.4
0	136194	521.4	4.2
0	136195	521.4	4
0	136196	521.4	3.8
0	136197	521.4	3.6
0	136198	521.4	3.4
0	136199	521.4	3.2
0	136200	521.4	3
0	136201	521.4	2.8
0	136202	521.4	2.6
0	136203	521.4	2.4
0	136204	521.4	2.2
0	136205	521.4	2
0	136206	521.4	1.8
0	136207	521.4	1.6
0	144712	582.1	62.1
0	144713	582.1	61.9
0	144714	582.1	61.7
0	144715	582.1	61.5
0	144716	582.1	61.3
0	144717	582.1	61.1
0	144718	582.1	60.9
0	144719	582.1	60.7
0	144720	582.1	60.5
0	144721	582.1	60.3
0	144722	582.1	60.1
0	144723	582.1	59.9
0	144724	582.1	59.7
0	144725	582.1	59.5
0	144726	582.1	59.3
0	144727	582.1	59.1
0	144728	582.1	58.9
0	144729	582.1	58.7
0	144730	582.1	58.5
0	144731	582.1	58.3
0	144732	582.1	58.1
0	144733	582.1	57.9
0	144734	582.1	57.7
0	144735	582.1	57.5
0	144736	582.1	57.3
0	144737	582.1	57.1
0	144738	582.1	56.9
0	144739	582.1	56.7
0	144740	582.1	56.5
0	144741	582.1	56.3
0	144742	582.1	56.1
0	144743	582.1	55.9
0	144744	582.1	55.7
0	144745	582.1	55.5
0	144746	582.1	55.3
0	144747	582.1	55.1
0	144748	582.1	54.9
0	144749	582.1	54.7
0	144750	582.1	54.5
0	144751	582.1	54.3
0	144752	582.1	54.1
0	144753	582.1	53.9
0	144754	582.1	53.7
0	144755	582.1	53.5
0	144756	582.1	53.3
0	144757	582.1	53.1
0	144758	582.1	52.9
0	144759	582.1	52.7
0	144760	582.1	52.5
0	144761	582.1	52.3
0	144762	582.1	52.1
0	144763	582.1	51.9
0	144764	582.1	51.7
0	144765	582.1	51.5
0	144766	582.1	51.3
0	144767	582.1	51.1
0	144768	582.1	50.9
0	144769	582.1	50.7
0	144770	582.1	50.5
0	144771	582.1	50.3
0	144772	582.1	50.1
0	144773	582.1	49.9
0	144774	582.1	49.7
0	144775	582.1	49.5
0	144776	582.1	49.3
0	144777	582.1	49.1
0	144778	582.1	48.9
0	144779	582.1	48.7
0	144780	582.1	48.5
0	144781	582.1	48.3
0	144782	582.1	48.1
0	144783	582.1	47.9
0	144784	582.1	47.7
0	144785	582.1	47.5
0	144786	582.1	47.3
0	144787	582.1	47.1
0	144788	582.1	46.9
0	144789	582.1	46.7
0	144790	582.1	46.5
0	144791	582.1	46.3
0	144792	582.1	46.1
0	144793	582.1	45.9
0	144794	582.1	45.7
0	144795	582.1	45.5
0	144796	582.1	45.3
0	144797	582.1	45.1
0	144798	582.1	44.9
0	144799	582.1	44.7
0	144800	582.1	44.5
0	144801	582.1	44.3
0	144802	582.1	44.1
0	144803	582.1	43.9
0	144804	582.1	43.7
0	144805	582.1	43.5
0	144806	582.1	43.3
0	144807	582.1	43.1
0	144808	582.1	42.9
0	144809	582.1	42.7
0	144810	582.1	42.5
0	144811	582.1	42.3
0	144812	582.1	42.1
0	144813	582.1	41.9
0	144814	582.1	41.7
0	144815	582.1	41.5
0	144816	582.1	41.3
0	144817	582.1	41.1
0	144818	582.1	40.9
0	144819	582.1	40.7
0	144820	582.1	40.5
0	144821	582.1	40.3
0	144822	582.1	40.1
0	144823	582.1	39.9
0	144824	582.1	39.7
0	144825	582.1	39.5
0	144826	582.1	39.3
0	144827	582.1	39.1
0	144828	582.1	38.9
0	144829	582.1	38.7
0	144830	582.1	38.5
0	144831	582.1	38.3
0	144832	582.1	38.1
0	144833	582.1	37.9
0	144834	582.1	37.7
0	144835	582.1	37.5
0	144836	582.1	37.3
0	144837	582.1	37.1
0	144838	582.1	36.9
0	144839	582.1	36.7
0	144840	582.1	36.5
0	144841	582.1	36.3
0	144842	582.1	36.1
0	144843	582.1	35.9
0	144844	582.1	35.7
0	144845	582.1	35.5
0	144846	582.1	35.3
0	144847	582.1	35.1
0	144848	582.1	34.9
0	144849	582.1	34.7
0	144850	582.1	34.5
0	144851	582.1	34.3
0	144852	582.1	34.1
0	144853	582.1	33.9
0	144854	582.1	33.7
0	144855	582.1	33.5
0	144856	582.1	33.3
0	144857	582.1	33.1
0	144858	582.1	32.9
0	144859	582.1	32.7
0	144860	582.1	32.5
0	144861	582.1	32.3
0	144862	582.1	32.1
0	144863	582.1	31.9
0	144864	582.1	31.7
0	144865	582.1	31.5
0	144866	582.1	31.3
0	144867	582.1	31.1
0	144868	582.1	30.9
0	144869	582.1	30.7
0	144870	582.1	30.5
0	144871	582.1	30.3
0	144872	582.1	30.1
0	144873	582.1	29.9
0	144874	582.1	29.7
0	144875	582.1	29.5
0	144876	582.1	29.3
0	144877	582.1	29.1
0	144878	582.1	28.9
0	144879	582.1	28.7
0	144880	582.1	28.5
0	144881	582.1	28.3
0	144882	582.1	28.1
0	144883	582.1	27.9
0	144884	582.1	27.7
0	144885	582.1	27.5
0	144886	582.1	27.3
0	144887	582.1	27.1
0	144888	582.1	26.9
0	144889	582.1	26.7
0	144890	582.1	26.5
0	144891	582.1	26.3
0	144892	582.1	26.1
0	144893	582.1	25.9
0	144894	582.1	25.7
0	144895	582.1	25.5
0	144896	582.1	25.3
0	144897	582.1	25.1
0	144898	582.1	24.9
0	144899	582.1	24.7
0	144900	582.1	24.5
0	144901	582.1	24.3
0	144902	582.1	24.1
0	144903	582.1	23.9
0	144904	582.1	23.7
0	144905	582.1	23.5
0	144906	582.1	23.3
0	144907	582.1	23.1
0	144908	582.1	22.9
0	144909	582.1	22.7
0	144910	582.1	22.5
0	144911	582.1	22.3
0	144912	582.1	22.1
0	144913	582.1	21.9
0	144914	582.1	21.7
0	144915	582.1	21.5
0	144916	582.1	21.3
0	144917	582.1	21.1
0	144918	582.1	20.9
0	144919	582.1	20.7
0	144920	582.1	20.5
0	144921	582.1	20.3
0	144922	582.1	20.1
0	144923	582.1	19.9
0	144924	582.1	19.7
0	144925	582.1	19.5
0	144926	582.1	19.3
0	144927	582.1	19.1
0	144928	582.1	18.9
0	144929	582.1	18.7
0	144930	582.1	18.5
0	144931	582.1	18.3
0	144932	582.1	18.1
0	144933	582.1	17.9
0	144934	582.1	17.7
0	144935	582.1	17.5
0	144936	582.1	17.3
0	144937	582.1	17.1
0	144938	582.1	16.9
0	144939	582.1	16.7
0	144940	582.1	16.5
0	144941	582.1	16.3
0	144942	582.1	16.1
0	144943	582.1	15.9
0	144944	582.1	15.7
0	144945	582.1	15.5
0	144946	582.1	15.3
0	144947	582.1	15.1
0	144948	582.1	14.9
0	144949	582.1	14.7
0	144950	582.1	14.5
0	144951	582.1	14.3
0	144952	582.1	14.1
0	144953	582.1	13.9
0	144954	582.1	13.7
0	144955	582.1	13.5
0	144956	582.1	13.3
0	144957	582.1	13.1
0	144958	582.1	12.9
0	144959	582.1	12.7
0	144960	582.1	12.5
0	144961	582.1	12.3
0	144962	582.1	12.1
0	144963	582.1	11.9
0	144964	582.1	11.7
0	144965	582.1	11.5
0	144966	582.1	11.3
0	144967	582.1	11.1
0	144968	582.1	10.9
0	144969	582.1	10.7
0	144970	582.1	10.5
0	144971	582.1	10.3
0	144972	582.1	10.1
0	144973	582.1	9.9
0	144974	582.1	9.7
0	144975	582.1	9.5
0	144976	582.1	9.3
0	144977	582.1	9.1
0	144978	582.1	8.9
0	144979	582.1	8.7
0	144980	582.1	8.5
0	144981	582.1	8.3
0	144982	582.1	8.1
0	144983	582.1	7.9
0	144984	582.1	7.7
0	144985	582.1	7.5
0	144986	582.1	7.3
0	144987	582.1	7.1
0	144988	582.1	6.9
0	144989	582.1	6.7
0	144990	582.1	6.5
0	144991	582.1	6.3
0	144992	582.1	6.1
0	144993	582.1	5.9
0	144994	582.1	5.7
0	144995	582.1	5.5
0	144996	582.1	5.3
0	144997	582.1	5.1
0	144998	582.1	4.9
0	144999	582.1	4.7
0	145000	582.1	4.5
0	145001	582.1	4.3
0	145002	582.1	4.1
0	145003	582.1	3.9
0	145004	582.1	3.7
0	145005	582.1	3.5
0	145006	582.1	3.3
0	145007	582.1	3.1
0	145008	582.1	2.9
0	145009	582.1	2.7
0	145010	582.1	2.5
0	145011	582.1	2.3
0	145012	582.1	2.1
0	145013	582.1	1.9
0	145014	582.1	1.7
0	145015	582.1	1.5
0	145043	582.2	1.4
0	145159	583.4	2.4
0	145160	583.4	2.2
0	145161	583.4	2
0	145162	583.4	1.8
0	145163	583.4	1.6
0	145164	583.4	1.4
0	145185	583.6	1.4
0	145206	583.8	1.4
0	145225	584	1.4
0	145244	584.2	1.4
0	145262	584.4	1.4
0	145280	584.6	1.4
0	145298	584.8	1.4
0	145317	585	1.4
0	152285	625.1	38.1
0	152286	625.1	37.9
0	152287	625.1	37.7
0	152288	625.1	37.5
0	152289	625.1	37.3
0	152290	625.1	37.1
0	152291	625.1	36.9
0	152292	625.1	36.7
0	152293	625.1	36.5
0	152294	625.1	36.3
0	152295	625.1	36.1
0	152296	625.1	35.9
0	152297	625.1	35.7
0	152298	625.1	35.5
0	152299	625.1	35.3
0	152300	625.1	35.1
0	152301	625.1	34.9
0	152302	625.1	34.7
0	152303	625.1	34.5
0	152304	625.1	34.3
0	152305	625.1	41.3
0	152306	625.1	41.1
0	152307	625.1	40.9
0	152308	625.1	40.7
0	152309	625.1	40.5
0	152310	625.1	40.3
0	152311	625.1	40.1
0	152312	625.1	39.9
0	152313	625.1	39.7
0	152314	625.1	39.5
0	152315	625.1	39.3
0	152316	625.1	39.1
0	152317	625.1	38.9
0	152318	625.1	38.7
0	152319	625.1	38.5
0	152320	625.1	38.3
0	160146	658.1	67.1
0	160147	658.1	66.9
0	160148	658.1	66.7
0	160149	658.1	66.5
0	160150	658.1	66.3
0	160151	658.1	66.1
0	160152	658.1	65.9
0	160153	658.1	65.7
0	160154	658.1	65.5
0	160155	658.1	65.3
0	160156	658.1	65.1
0	160157	658.1	64.9
0	160158	658.1	64.7
0	160159	658.1	64.5
0	160160	658.1	64.3
0	160161	658.1	64.1
0	160162	658.1	63.9
0	160163	658.1	63.7
0	160164	658.1	63.5
0	160165	658.1	63.3
0	160166	658.1	63.1
0	160167	658.1	62.9
0	160168	658.1	62.7
0	160169	658.1	62.5
0	160170	658.1	62.3
0	160171	658.1	62.1
0	160172	658.1	61.9
0	160173	658.1	61.7
0	160174	658.1	61.5
0	160175	658.1	61.3
0	160176	658.1	61.1
0	160177	658.1	60.9
0	160178	658.1	60.7
0	160179	658.1	60.5
0	160180	658.1	60.3
0	160181	658.1	60.1
0	160182	658.1	59.9
0	160183	658.1	59.7
0	160184	658.1	59.5
0	160185	658.1	59.3
0	160186	658.1	59.1
0	160187	658.1	58.9
0	160188	658.1	58.7
0	160189	658.1	58.5
0	160190	658.1	58.3
0	160191	658.1	58.1
0	160192	658.1	57.9
0	160193	658.1	57.7
0	160194	658.1	57.5
0	160195	658.1	57.3
0	160196	658.1	57.1
0	160197	658.1	56.9
0	160198	658.1	56.7
0	160199	658.1	56.5
0	160200	658.1	56.3
0	160201	658.1	56.1
0	160202	658.1	55.9
0	160203	658.1	55.7
0	160204	658.1	55.5
0	160205	658.1	55.3
0	160206	658.1	55.1
0	160207	658.1	54.9
0	160208	658.1	54.7
0	160209	658.1	54.5
0	160210	658.1	54.3
0	160211	658.1	54.1
0	160212	658.1	53.9
0	160213	658.1	53.7
0	160214	658.1	53.5
0	160215	658.1	53.3
0	160216	658.1	53.1
0	160217	658.1	52.9
0	160218	658.1	52.7
0	160219	658.1	52.5
0	160220	658.1	52.3
0	160221	658.1	52.1
0	160222	658.1	51.9
0	160223	658.1	51.7
0	160224	658.1	51.5
0	160225	658.1	51.3
0	160226	658.1	51.1
0	160227	658.1	50.9
0	160228	658.1	50.7
0	160229	658.1	50.5
0	160230	658.1	50.3
0	160231	658.1	50.1
0	160232	658.1	49.9
0	160233	658.1	49.7
0	160234	658.1	49.5
0	160235	658.1	49.3
0	160236	658.1	49.1
0	160237	658.1	48.9
0	160238	658.1	48.7
0	160239	658.1	48.5
0	160240	658.1	48.3
0	160241	658.1	48.1
0	160242	658.1	47.9
0	160243	658.1	47.7
0	160244	658.1	47.5
0	160245	658.1	47.3
0	160246	658.1	47.1
0	160247	658.1	46.9
0	160248	658.1	46.7
0	160249	658.1	46.5
0	160250	658.1	46.3
0	160251	658.1	46.1
0	160252	658.1	45.9
0	160253	658.1	45.7
0	160254	658.1	45.5
0	160255	658.1	45.3
0	160256	658.1	45.1
0	160257	658.1	44.9
0	160258	658.1	44.7
0	160259	658.1	44.5
0	160260	658.1	44.3
0	160261	658.1	44.1
0	160262	658.1	43.9
0	160263	658.1	43.7
0	160264	658.1	43.5
0	160265	658.1	43.3
0	160266	658.1	43.1
0	160267	658.1	42.9
0	160268	658.1	42.7
0	160269	658.1	42.5
0	160270	658.1	42.3
0	160271	658.1	42.1
0	160272	658.1	41.9
0	160273	658.1	41.7
0	160274	658.1	41.5
0	160275	658.1	41.3
0	160276	658.1	41.1
0	160277	658.1	40.9
0	160278	658.1	40.7
0	160279	658.1	40.5
0	160280	658.1	40.3
0	160281	658.1	40.1
0	160282	658.1	39.9
0	160283	658.1	39.7
0	160284	658.1	39.5
0	160285	658.1	39.3
0	160286	658.1	39.1
0	160287	658.1	38.9
0	160288	658.1	38.7
0	160289	658.1	38.5
0	160290	658.1	38.3
0	160291	658.1	38.1
0	160292	658.1	37.9
0	160293	658.1	37.7
0	160294	658.1	37.5
0	160295	658.1	37.3
0	160296	658.1	37.1
0	160297	658.1	36.9
0	160298	658.1	36.7
0	160299	658.1	36.5
0	160300	658.1	36.3
0	160301	658.1	36.1
0	160302	658.1	35.9
0	160303	658.1	35.7
0	160304	658.1	35.5
0	160305	658.1	35.3
0	160306	658.1	35.1
0	160307	658.1	34.9
0	160308	658.1	34.7
0	160309	658.1	34.5
0	160310	658.1	34.3
0	160311	658.1	34.1
0	160312	658.1	33.9
0	160313	658.1	33.7
0	160314	658.1	33.5
0	160315	658.1	33.3
0	160316	658.1	33.1
0	160317	658.1	32.9
0	160318	658.1	32.7
0	160319	658.1	32.5
0	160320	658.1	32.3
0	160321	658.1	32.1
0	160322	658.1	31.9
0	160323	658.1	31.7
0	160324	658.1	31.5
0	160325	658.1	31.3
0	160326	658.1	31.1
0	160327	658.1	30.9
0	160328	658.1	30.7
0	160329	658.1	30.5
0	160330	658.1	30.3
0	160331	658.1	30.1
0	160332	658.1	29.9
0	160333	658.1	29.7
0	160334	658.1	29.5
0	160335	658.1	29.3
0	160336	658.1	29.1
0	160337	658.1	28.9
0	160338	658.1	28.7
0	160339	658.1	28.5
0	160340	658.1	28.3
0	160341	658.1	28.1
0	160342	658.1	27.9
0	160343	658.1	27.7
0	160344	658.1	27.5
0	160345	658.1	27.3
0	160346	658.1	27.1
0	160347	658.1	26.9
0	160348	658.1	26.7
0	160349	658.1	26.5
0	160350	658.1	26.3
0	160351	658.1	26.1
0	160352	658.1	25.9
0	160353	658.1	25.7
0	160354	658.1	25.5
0	160355	658.1	25.3
0	160356	658.1	25.1
0	160357	658.1	24.9
0	160358	658.1	24.7
0	160359	658.1	24.5
0	160360	658.1	24.3
0	160361	658.1	24.1
0	160362	658.1	23.9
0	160363	658.1	23.7
0	160364	658.1	23.5
0	160365	658.1	23.3
0	160366	658.1	23.1
0	160367	658.1	22.9
0	160368	658.1	22.7
0	160369	658.1	22.5
0	160370	658.1	22.3
0	160371	658.1	22.1
0	160372	658.1	21.9
0	160373	658.1	21.7
0	160374	658.1	21.5
0	160375	658.1	21.3
0	160376	658.1	21.1
0	160377	658.1	20.9
0	160378	658.1	20.7
0	160379	658.1	20.5
0	160380	658.1	20.3
0	160381	658.1	20.1
0	160382	658.1	19.9
0	160383	658.1	19.7
0	160384	658.1	19.5
0	160385	658.1	19.3
0	160386	658.1	19.1
0	160387	658.1	18.9
0	160388	658.1	18.7
0	160389	658.1	18.5
0	160390	658.1	18.3
0	160391	658.1	18.1
0	160392	658.1	17.9
0	160393	658.1	17.7
0	160394	658.1	17.5
0	160395	658.1	17.3
0	160396	658.1	17.1
0	160397	658.1	16.9
0	160398	658.1	16.7
0	160399	658.1	16.5
0	160400	658.1	16.3
0	160401	658.1	16.1
0	160402	658.1	15.9
0	160403	658.1	15.7
0	160404	658.1	15.5
0	160405	658.1	15.3
0	160406	658.1	15.1
0	160407	658.1	14.9
0	160408	658.1	14.7
0	160409	658.1	14.5
0	160410	658.1	14.3
0	160411	658.1	14.1
0	160412	658.1	13.9
0	160413	658.1	13.7
0	160414	658.1	13.5
0	160415	658.1	13.3
0	160416	658.1	13.1
0	160417	658.1	12.9
0	160418	658.1	12.7
0	160419	658.1	12.5
0	160420	658.1	12.3
0	160421	658.1	12.1
0	160422	658.1	11.9
0	160423	658.1	11.7
0	160424	658.1	11.5
0	160425	658.1	11.3
0	160426	658.1	11.1
0	160427	658.1	10.9
0	160428	658.1	10.7
0	160429	658.1	10.5
0	160430	658.1	10.3
0	160431	658.1	10.1
0	160432	658.1	9.9
0	160433	658.1	9.7
0	160434	658.1	9.5
0	160435	658.1	9.3
0	162824	661.4	12.4
0	162825	661.4	12.2
0	162826	661.4	12
0	162827	661.4	11.8
0	162828	661.4	11.6
0	162829	661.4	11.4
0	162830	661.4	11.2
0	162831	661.4	11
0	162832	661.4	10.8
0	162833	661.4	10.6
0	162834	661.4	10.4
0	162835	661.4	10.2
0	162836	661.4	10
0	162837	661.4	9.8
0	162838	661.4	9.6
0	162839	661.4	9.4
0	162840	661.4	9.2
0	162841	661.4	9
0	162842	661.4	8.8
0	162843	661.4	8.6
0	162844	661.4	8.4
0	162845	661.4	8.2
0	162846	661.4	8
0	162847	661.4	7.8
0	162848	661.4	7.6
0	162849	661.4	7.4
0	162850	661.4	7.2
0	162851	661.4	7
0	162852	661.4	6.8
0	162853	661.4	6.6
0	162854	661.4	6.4
0	162855	661.4	6.2
0	162856	661.4	6
0	162857	661.4	5.8
0	162858	661.4	5.6
0	162859	661.4	5.4
0	162860	661.4	5.2
0	162861	661.4	5
0	162862	661.4	4.8
0	162863	661.4	4.6
0	162864	661.4	4.4
0	162865	661.4	4.2
0	162866	661.4	4
0	162867	661.4	3.8
0	162868	661.4	3.6
0	162869	661.4	3.4
0	162870	661.4	3.2
0	162871	661.4	3
0	162872	661.4	2.8
0	162873	661.4	2.6
0	162874	661.4	2.4
0	162875	661.4	2.2
0	162876	661.4	2
0	162877	661.4	1.8
0	162878	661.4	1.6
0	162879	661.4	1.4
0	163178	661.6	1.4
0	163202	661.8	1.4
0	163229	662	1.4
0	166407	680.1	19.3
0	166408	680.1	19.1
0	166409	680.1	18.9
0	166410	680.1	18.7
0	166411	680.1	18.5
0	166412	680.1	18.3
0	166413	680.1	18.1
0	166414	680.1	17.9
0	166415	680.1	17.7
0	166416	680.1	17.5
0	166417	680.1	17.3
0	166418	680.1	17.1
0	166419	680.1	16.9
0	166420	680.1	16.7
0	166421	680.1	16.5
0	166422	680.1	16.3
0	166423	680.1	16.1
0	166424	680.1	15.9
0	166425	680.1	15.7
0	166426	680.1	15.5
0	166427	680.1	15.3
0	166428	680.1	15.1
0	166429	680.1	14.9
0	166430	680.1	14.7
0	166431	680.1	14.5
0	166432	680.1	14.3
0	166433	680.1	14.1
0	166434	680.1	13.9
0	166435	680.1	13.7
0	166436	680.1	13.5
0	166437	680.1	13.3
0	166438	680.1	13.1
0	166439	680.1	12.9
0	166440	680.1	12.7
0	166441	680.1	12.5
0	166442	680.1	12.3
0	166443	680.1	12.1
0	166444	680.1	11.9
0	166445	680.1	11.7
0	166446	680.1	11.5
0	166447	680.1	11.3
0	175055	712.1	43.1
0	175056	712.1	42.9
0	175057	712.1	42.7
0	175058	712.1	42.5
0	175059	712.1	42.3
0	175060	712.1	42.1
0	175061	712.1	41.9
0	175062	712.1	41.7
0	175063	712.1	41.5
0	175064	712.1	41.3
0	175065	712.1	41.1
0	175066	712.1	40.9
0	175067	712.1	40.7
0	175068	712.1	40.5
0	175069	712.1	40.3
0	175070	712.1	40.1
0	175071	712.1	39.9
0	175072	712.1	39.7
0	175073	712.1	39.5
0	175074	712.1	39.3
0	175075	712.1	39.1
0	175076	712.1	38.9
0	175077	712.1	38.7
0	175078	712.1	38.5
0	175079	712.1	38.3
0	175080	712.1	38.1
0	175081	712.1	37.9
0	175082	712.1	37.7
0	175083	712.1	37.5
0	175084	712.1	37.3
0	175085	712.1	37.1
0	175086	712.1	36.9
0	175087	712.1	36.7
0	175088	712.1	36.5
0	175089	712.1	36.3
0	175090	712.1	36.1
0	175091	712.1	35.9
0	175092	712.1	35.7
0	175093	712.1	35.5
0	175094	712.1	35.3
0	175095	712.1	35.1
0	175096	712.1	34.9
0	175097	712.1	34.7
0	175098	712.1	34.5
0	175099	712.1	34.3
0	175100	712.1	34.1
0	175101	712.1	33.9
0	175102	712.1	33.7
0	175103	712.1	33.5
0	175104	712.1	33.3
0	175105	712.1	33.1
0	175106	712.1	32.9
0	175107	712.1	32.7
0	175108	712.1	32.5
0	175109	712.1	32.3
0	175110	712.1	32.1
0	175111	712.1	31.9
0	175112	712.1	31.7
0	175113	712.1	31.5
0	175114	712.1	31.3
0	175115	712.1	31.1
0	175116	712.1	30.9
0	175117	712.1	30.7
0	175118	712.1	30.5
0	175119	712.1	30.3
0	175120	712.1	30.1
0	175121	712.1	29.9
0	175122	712.1	29.7
0	175123	712.1	29.5
0	175124	712.1	29.3
0	175125	712.1	29.1
0	175126	712.1	28.9
0	175127	712.1	28.7
0	175128	712.1	28.5
0	175129	712.1	28.3
0	175130	712.1	28.1
0	175131	712.1	27.9
0	175132	712.1	27.7
0	175133	712.1	27.5
0	175134	712.1	27.3
0	175135	712.1	27.1
0	175136	712.1	26.9
0	175137	712.1	26.7
0	175138	712.1	26.5
0	175139	712.1	26.3
0	175140	712.1	26.1
0	175141	712.1	25.9
0	175142	712.1	25.7
0	175143	712.1	25.5
0	175144	712.1	25.3
0	175145	712.1	25.1
0	175146	712.1	24.9
0	175147	712.1	24.7
0	175148	712.1	24.5
0	175149	712.1	24.3
0	175150	712.1	24.1
0	175151	712.1	23.9
0	175152	712.1	23.7
0	175153	712.1	23.5
0	175154	712.1	23.3
0	175155	712.1	23.1
0	175156	712.1	22.9
0	175157	712.1	22.7
0	175158	712.1	22.5
0	175159	712.1	22.3
0	175160	712.1	22.1
0	175161	712.1	21.9
0	175162	712.1	21.7
0	175163	712.1	21.5
0	175164	712.1	21.3
0	175165	712.1	21.1
0	175166	712.1	20.9
0	175167	712.1	20.7
0	175168	712.1	20.5
0	175169	712.1	20.3
0	175170	712.1	20.1
0	175171	712.1	19.9
0	175172	712.1	19.7
0	175173	712.1	19.5
0	175174	712.1	19.3
0	175175	712.1	19.1
0	175176	712.1	18.9
0	175177	712.1	18.7
0	175178	712.1	18.5
0	175179	712.1	18.3
0	175180	712.1	18.1
0	175181	712.1	17.9
0	175182	712.1	17.7
0	175183	712.1	17.5
0	175184	712.1	17.3
0	175185	712.1	17.1
0	175186	712.1	16.9
0	175187	712.1	16.7
0	175188	712.1	16.5
0	175189	712.1	16.3
0	175190	712.1	16.1
0	175191	712.1	15.9
0	175192	712.1	15.7
0	175193	712.1	15.5
0	175194	712.1	15.3
0	175195	712.1	15.1
0	175196	712.1	14.9
0	175197	712.1	14.7
0	175198	712.1	14.5
0	175199	712.1	14.3
0	175200	712.1	14.1
0	175201	712.1	13.9
0	175202	712.1	13.7
0	175203	712.1	13.5
0	175204	712.1	13.3
0	175205	712.1	13.1
0	175206	712.1	12.9
0	175207	712.1	12.7
0	175208	712.1	12.5
0	175209	712.1	12.3
0	175210	712.1	12.1
0	175211	712.1	11.9
0	175212	712.1	11.7
0	175213	712.1	11.5
0	175214	712.1	11.3
0	175215	712.1	11.1
0	175216	712.1	10.9
0	175217	712.1	10.7
0	175218	712.1	10.5
0	175219	712.1	10.3
0	175220	712.1	10.1
0	175221	712.1	9.9
0	175222	712.1	9.7
0	175223	712.1	9.5
0	175224	712.1	9.3
0	175225	712.1	9.1
0	175226	712.1	8.9
0	175227	712.1	8.7
0	175228	712.1	8.5
0	175229	712.1	8.3
0	177546	713.3	9.3
0	177547	713.3	9.1
0	177548	713.3	8.9
0	177549	713.3	8.7
0	177550	713.3	8.5
0	177551	713.3	8.3
0	177552	713.3	8.1
0	177553	713.3	7.9
0	177554	713.3	7.7
0	177555	713.3	7.5
0	177556	713.3	7.3
0	177557	713.3	7.1
0	177558	713.3	6.9
0	177559	713.3	6.7
0	177560	713.3	6.5
0	177561	713.3	6.3
0	177562	713.3	6.1
0	177563	713.3	5.9
0	177564	713.3	5.7
0	177565	713.3	5.5
0	177566	713.3	5.3
0	177567	713.3	5.1
0	177568	713.3	4.9
0	177569	713.3	4.7
0	177570	713.3	4.5
0	177571	713.3	4.3
0	177572	713.3	4.1
0	177573	713.3	3.9
0	177574	713.3	3.7
0	177575	713.3	3.5
0	179028	724.1	14.1
0	179029	724.1	13.9
0	179030	724.1	13.7
0	179031	724.1	13.5
0	179032	724.1	13.3
0	179033	724.1	13.1
0	179034	724.1	12.9
0	179035	724.1	12.7
0	179036	724.1	12.5
0	179037	724.1	12.3
0	179038	724.1	12.1
0	179039	724.1	11.9
0	179040	724.1	11.7
0	179041	724.1	11.5
0	179042	724.1	11.3
0	179043	724.1	11.1
0	179044	724.1	10.9
0	179045	724.1	10.7
0	179046	724.1	10.5
0	179047	724.1	10.3
0	179048	724.1	10.1
0	179049	724.1	9.9
0	179050	724.1	9.7
0	179051	724.1	9.5
0	179052	724.1	9.3
0	179053	724.1	9.1
0	179054	724.1	8.9
0	179055	724.1	8.7
0	179056	724.1	8.5
0	179057	724.1	8.3
0	179058	724.1	8.1
0	179059	724.1	7.9
0	179060	724.1	7.7
0	179061	724.1	7.5
0	179062	724.1	7.3
0	179063	724.1	7.1
0	179064	724.1	6.9
0	179065	724.1	6.7
0	179066	724.1	6.5
0	179067	724.1	6.3
0	179068	724.1	6.1
0	179069	724.1	5.9
0	179070	724.1	5.7
0	179071	724.1	5.5
0	179072	724.1	5.3
0	179073	724.1	5.1
0	179074	724.1	4.9
0	179075	724.1	4.7
0	179076	724.1	4.5
0	179241	725.4	4.4
0	179242	725.4	4.2
0	179243	725.4	4
0	179244	725.4	3.8
0	179245	725.4	3.6
0	187721	781.2	61.4
0	187722	781.2	61.2
0	187723	781.2	61
0	187724	781.2	60.8
0	187725	781.2	60.6
0	187726	781.2	60.4
0	187727	781.2	59.2
0	187728	781.2	59
0	187729	781.2	58.8
0	187730	781.2	58.6
0	187731	781.2	58.4
0	187732	781.2	58.2
0	187733	781.2	58
0	187734	781.2	57.8
0	187735	781.2	57.6
0	187736	781.2	57.4
0	187737	781.2	57.2
0	187738	781.2	57
0	187739	781.2	56.8
0	187740	781.2	56.6
0	187741	781.2	56.4
0	187742	781.2	56.2
0	187743	781.2	56
0	187744	781.2	55.8
0	187745	781.2	55.6
0	187746	781.2	55.4
0	187747	781.2	55.2
0	187748	781.2	55
0	187749	781.2	54.8
0	187750	781.2	54.6
0	187751	781.2	54.4
0	187752	781.2	54.2
0	187753	781.2	54
0	187754	781.2	53.8
0	187755	781.2	53.6
0	187756	781.2	53.4
0	187757	781.2	53.2
0	187758	781.2	53
0	187759	781.2	52.8
0	187760	781.2	52.6
0	187761	781.2	52.4
0	187762	781.2	52.2
0	187763	781.2	52
0	187764	781.2	51.8
0	187765	781.2	51.6
0	187766	781.2	51.4
0	187767	781.2	51.2
0	187768	781.2	51
0	187769	781.2	50.8
0	187770	781.2	50.6
0	187771	781.2	50.4
0	187772	781.2	50.2
0	187773	781.2	50
0	187774	781.2	49.8
0	187775	781.2	49.6
0	187776	781.2	49.4
0	187777	781.2	49.2
0	187778	781.2	49
0	187779	781.2	48.8
0	187780	781.2	48.6
0	187781	781.2	48.4
0	187782	781.2	48.2
0	187783	781.2	48
0	187784	781.2	47.8
0	187785	781.2	47.6
0	187786	781.2	47.4
0	187787	781.2	47.2
0	187788	781.2	47
0	187789	781.2	46.8
0	187790	781.2	46.6
0	187791	781.2	46.4
0	187792	781.2	46.2
0	187793	781.2	46
0	187794	781.2	45.8
0	187795	781.2	45.6
0	187796	781.2	45.4
0	187797	781.2	45.2
0	187798	781.2	45
0	187799	781.2	44.8
0	187800	781.2	44.6
0	187801	781.2	44.4
0	187802	781.2	44.2
0	187803	781.2	44
0	187804	781.2	43.8
0	187805	781.2	43.6
0	187806	781.2	43.4
0	187807	781.2	43.2
0	187808	781.2	43
0	187809	781.2	42.8
0	187810	781.2	42.6
0	187811	781.2	42.4
0	187812	781.2	42.2
0	187813	781.2	42
0	187814	781.2	41.8
0	187815	781.2	41.6
0	187816	781.2	41.4
0	187817	781.2	41.2
0	187818	781.2	41
0	187819	781.2	40.8
0	187820	781.2	40.6
0	187821	781.2	40.4
0	187822	781.2	40.2
0	187823	781.2	40
0	187824	781.2	39.8
0	187825	781.2	39.6
0	187826	781.2	39.4
0	187827	781.2	39.2
0	187828	781.2	39
0	187829	781.2	38.8
0	187830	781.2	38.6
0	187831	781.2	38.4
0	187832	781.2	38.2
0	187833	781.2	38
0	187834	781.2	37.8
0	187835	781.2	37.6
0	187836	781.2	37.4
0	187837	781.2	37.2
0	187838	781.2	37
0	187839	781.2	36.8
0	187840	781.2	36.6
0	187841	781.2	36.4
0	187842	781.2	36.2
0	187843	781.2	36
0	187844	781.2	35.8
0	187845	781.2	35.6
0	187846	781.2	35.4
0	187847	781.2	35.2
0	187848	781.2	35
0	187849	781.2	34.8
0	187850	781.2	34.6
0	187851	781.2	34.4
0	187852	781.2	34.2
0	187853	781.2	34
0	187854	781.2	33.8
0	187855	781.2	33.6
0	187856	781.2	33.4
0	187857	781.2	33.2
0	187858	781.2	33
0	187859	781.2	32.8
0	187860	781.2	32.6
0	187861	781.2	32.4
0	187862	781.2	32.2
0	187863	781.2	32
0	187864	781.2	31.8
0	187865	781.2	31.6
0	187866	781.2	31.4
0	187867	781.2	31.2
0	187868	781.2	31
0	187869	781.2	30.8
0	187870	781.2	30.6
0	187871	781.2	30.4
0	187872	781.2	30.2
0	187873	781.2	30
0	187874	781.2	29.8
0	187875	781.2	29.6
0	187876	781.2	29.4
0	187877	781.2	29.2
0	187878	781.2	29
0	187879	781.2	28.8
0	187880	781.2	28.6
0	187881	781.2	28.4
0	187882	781.2	28.2
0	187883	781.2	28
0	187884	781.2	27.8
0	187885	781.2	27.6
0	187886	781.2	27.4
0	187887	781.2	27.2
0	187888	781.2	27
0	187889	781.2	26.8
0	187890	781.2	26.6
0	187891	781.2	26.4
0	187892	781.2	26.2
0	187893	781.2	26
0	187894	781.2	25.8
0	187895	781.2	25.6
0	187896	781.2	25.4
0	187897	781.2	25.2
0	187898	781.2	25
0	187899	781.2	24.8
0	187900	781.2	24.6
0	187901	781.2	24.4
0	187902	781.2	24.2
0	187903	781.2	24
0	187904	781.2	23.8
0	187905	781.2	23.6
0	187906	781.2	23.4
0	187907	781.2	23.2
0	187908	781.2	23
0	187909	781.2	22.8
0	187910	781.2	22.6
0	187911	781.2	22.4
0	187912	781.2	22.2
0	187913	781.2	22
0	187914	781.2	21.8
0	187915	781.2	21.6
0	187916	781.2	21.4
0	187917	781.2	21.2
0	187918	781.2	21
0	187919	781.2	20.8
0	187920	781.2	20.6
0	187921	781.2	20.4
0	187922	781.2	20.2
0	187923	781.2	20
0	187924	781.2	19.8
0	187925	781.2	19.6
0	187926	781.2	19.4
0	187927	781.2	19.2
0	187928	781.2	19
0	187929	781.2	18.8
0	187930	781.2	18.6
0	187931	781.2	18.4
0	187932	781.2	18.2
0	187933	781.2	18
0	187934	781.2	17.8
0	187935	781.2	17.6
0	187936	781.2	17.4
0	187937	781.2	17.2
0	187938	781.2	17
0	187939	781.2	16.8
0	187940	781.2	16.6
0	187941	781.2	16.4
0	187942	781.2	16.2
0	187943	781.2	16
0	187944	781.2	15.8
0	187945	781.2	15.6
0	187946	781.2	15.4
0	187947	781.2	15.2
0	187948	781.2	15
0	187949	781.2	14.8
0	187950	781.2	14.6
0	187951	781.2	14.4
0	187952	781.2	14.2
0	187953	781.2	14
0	187954	781.2	13.8
0	187955	781.2	13.6
0	187956	781.2	13.4
0	187957	781.2	13.2
0	187958	781.2	13
0	187959	781.2	12.8
0	187960	781.2	12.6
0	187961	781.2	12.4
0	187962	781.2	12.2
0	187963	781.2	12
0	187964	781.2	11.8
0	187965	781.2	11.6
0	187966	781.2	11.4
0	187967	781.2	11.2
0	187968	781.2	11
0	187969	781.2	10.8
0	187970	781.2	10.6
0	187971	781.2	10.4
0	187972	781.2	10.2
0	187973	781.2	10
0	187974	781.2	9.8
0	187975	781.2	9.6
0	187976	781.2	9.4
0	187977	781.2	9.2
0	187978	781.2	9
0	187979	781.2	8.8
0	187980	781.2	8.6
0	187981	781.2	8.4
0	187982	781.2	8.2
0	187983	781.2	8
0	187984	781.2	7.8
0	187985	781.2	7.6
0	187986	781.2	7.4
0	187987	781.2	7.2
0	187988	781.2	7
0	187989	781.2	6.8
0	187990	781.2	6.6
0	187991	781.2	6.4
0	187992	781.2	6.2
0	187993	781.2	6
0	187994	781.2	5.8
0	187995	781.2	5.6
0	187996	781.2	5.4
0	187997	781.2	5.2
0	187998	781.2	5
0	187999	781.2	4.8
0	188000	781.2	4.6
0	188001	781.2	4.4
0	188002	781.2	4.2
0	188003	781.2	4
0	188004	781.2	3.8
0	188005	781.2	3.6
0	188006	781.2	3.4
0	195346	805.1	27.1
0	195347	805.1	26.9
0	195348	805.1	26.7
0	195349	805.1	26.5
0	195350	805.1	26.3
0	195351	805.1	26.1
0	195352	805.1	25.9
0	195353	805.1	25.7
0	195354	805.1	25.5
0	195355	805.1	25.3
0	195356	805.1	25.1
0	195357	805.1	24.9
0	195358	805.1	24.7
0	195359	805.1	24.5
0	195360	805.1	24.3
0	195361	805.1	24.1
0	195362	805.1	23.9
0	195363	805.1	23.7
0	195364	805.1	23.5
0	195365	805.1	23.3
0	195366	805.1	23.1
0	195367	805.1	22.9
0	195368	805.1	22.7
0	195369	805.1	22.5
0	195370	805.1	22.3
0	195371	805.1	22.1
0	195372	805.1	21.9
0	195373	805.1	21.7
0	195374	805.1	21.5
0	195375	805.1	21.3
0	195376	805.1	21.1
0	195377	805.1	20.9
0	195378	805.1	20.7
0	195379	805.1	20.5
0	195380	805.1	20.3
0	195381	805.1	20.1
0	195382	805.1	19.9
0	195383	805.1	19.7
0	195384	805.1	19.5
0	195385	805.1	19.3
0	195386	805.1	19.1
0	195387	805.1	18.9
0	195388	805.1	18.7
0	195389	805.1	18.5
0	195390	805.1	18.3
0	195391	805.1	18.1
0	195392	805.1	17.9
0	195393	805.1	17.7
0	195394	805.1	17.5
0	195395	805.1	17.3
0	195396	805.1	17.1
0	195397	805.1	16.9
0	195398	805.1	16.7
0	195399	805.1	16.5
0	195400	805.1	16.3
0	195401	805.1	16.1
0	195402	805.1	15.9
0	195403	805.1	15.7
0	195404	805.1	15.5
0	195405	805.1	15.3
0	195406	805.1	15.1
0	195407	805.1	14.9
0	195408	805.1	14.7
0	195409	805.1	14.5
0	195410	805.1	14.3
0	195411	805.1	14.1
0	195412	805.1	13.9
0	195413	805.1	13.7
0	195414	805.1	13.5
0	195415	805.1	13.3
0	195416	805.1	13.1
0	195417	805.1	12.9
0	195418	805.1	12.7
0	195419	805.1	12.5
0	195420	805.1	12.3
0	195421	805.1	12.1
0	195422	805.1	11.9
0	195423	805.1	11.7
0	195424	805.1	11.5
0	195425	805.1	11.3
0	195426	805.1	11.1
0	195427	805.1	10.9
0	195428	805.1	10.7
0	195429	805.1	10.5
0	195430	805.1	10.3
0	195431	805.1	10.1
0	195432	805.1	9.9
0	195433	805.1	9.7
0	195434	805.1	9.5
0	195435	805.1	9.3
0	195436	805.1	9.1
0	195437	805.1	8.9
0	195438	805.1	8.7
0	195439	805.1	8.5
0	195440	805.1	8.3
0	195441	805.1	8.1
0	195442	805.1	7.9
0	195443	805.1	7.7
0	195444	805.1	7.5
0	195445	805.1	7.3
0	200279	834.1	36.1
0	200280	834.1	35.9
0	200281	834.1	35.7
0	200282	834.1	35.5
0	200283	834.1	35.3
0	200284	834.1	35.1
0	200285	834.1	34.9
0	200286	834.1	34.7
0	200287	834.1	34.5
0	200288	834.1	34.3
0	200289	834.1	34.1
0	200290	834.1	33.9
0	200291	834.1	33.7
0	200292	834.1	33.5
0	200293	834.1	33.3
0	200294	834.1	33.1
0	200295	834.1	32.9
0	200296	834.1	32.7
0	200297	834.1	32.5
0	200298	834.1	32.3
0	200299	834.1	32.1
0	200300	834.1	31.9
0	200301	834.1	31.7
0	200302	834.1	31.5
0	200303	834.1	31.3
0	200304	834.1	31.1
0	200305	834.1	30.9
0	200306	834.1	30.7
0	200307	834.1	30.5
0	200308	834.1	30.3
0	200309	834.1	30.1
0	200310	834.1	29.9
0	200311	834.1	29.7
0	200312	834.1	29.5
0	200313	834.1	29.3
0	200314	834.1	29.1
0	200315	834.1	28.9
0	200316	834.1	28.7
0	200317	834.1	28.5
0	200318	834.1	28.3
0	200319	834.1	28.1
0	200320	834.1	27.9
0	200321	834.1	27.7
0	200322	834.1	27.5
0	200323	834.1	27.3
0	200324	834.1	27.1
0	200325	834.1	26.9
0	200326	834.1	26.7
0	200327	834.1	26.5
0	200328	834.1	26.3
0	200329	834.1	26.1
0	200330	834.1	25.9
0	200331	834.1	25.7
0	200332	834.1	25.5
0	200333	834.1	25.3
0	200334	834.1	25.1
0	200335	834.1	24.9
0	200336	834.1	24.7
0	200337	834.1	24.5
0	200338	834.1	24.3
0	200339	834.1	24.1
0	200340	834.1	23.9
0	200341	834.1	23.7
0	200342	834.1	23.5
0	200343	834.1	23.3
0	200344	834.1	23.1
0	200345	834.1	22.9
0	200346	834.1	22.7
0	200347	834.1	22.5
0	200348	834.1	22.3
0	200349	834.1	22.1
0	200350	834.1	21.9
0	200351	834.1	21.7
0	200352	834.1	21.5
0	200353	834.1	21.3
0	200354	834.1	21.1
0	200355	834.1	20.9
0	200356	834.1	20.7
0	200357	834.1	20.5
0	200358	834.1	20.3
0	200359	834.1	20.1
0	200360	834.1	19.9
0	200361	834.1	19.7
0	200362	834.1	19.5
0	200363	834.1	19.3
0	200364	834.1	19.1
0	200365	834.1	18.9
0	200366	834.1	18.7
0	200367	834.1	18.5
0	200368	834.1	18.3
0	200369	834.1	18.1
0	200370	834.1	17.9
0	200371	834.1	17.7
0	200372	834.1	17.5
0	200373	834.1	17.3
0	200374	834.1	17.1
0	200375	834.1	16.9
0	200376	834.1	16.7
0	200377	834.1	16.5
0	200378	834.1	16.3
0	200379	834.1	16.1
0	200380	834.1	15.9
0	200381	834.1	15.7
0	200382	834.1	15.5
0	200383	834.1	15.3
0	200384	834.1	15.1
0	200385	834.1	14.9
0	200386	834.1	14.7
0	200387	834.1	14.5
0	200388	834.1	14.3
0	200389	834.1	14.1
0	200390	834.1	13.9
0	200391	834.1	13.7
0	200392	834.1	13.5
0	200393	834.1	13.3
0	200394	834.1	13.1
0	200395	834.1	12.9
0	200396	834.1	12.7
0	200397	834.1	12.5
0	200398	834.1	12.3
0	200399	834.1	12.1
0	200400	834.1	11.9
0	200401	834.1	11.7
0	200402	834.1	11.5
0	200403	834.1	11.3
0	200404	834.1	11.1
0	200405	834.1	10.9
0	200406	834.1	10.7
0	200407	834.1	10.5
0	200408	834.1	10.3
0	200409	834.1	10.1
0	200410	834.1	9.9
0	200411	834.1	9.7
0	200412	834.1	9.5
0	200413	834.1	9.3
0	200414	834.1	9.1
0	200415	834.1	8.9
0	200416	834.1	8.7
0	200417	834.1	8.5
0	200418	834.1	8.3
0	200419	834.1	8.1
0	200420	834.1	7.9
0	200421	834.1	7.7
0	200422	834.1	7.5
0	200423	834.1	7.3
0	200424	834.1	7.1
0	200425	834.1	6.9
0	200426	834.1	6.7
0	200427	834.1	6.5
0	200428	834.1	6.3
0	203856	844.1	16.1
0	203857	844.1	15.9
0	203858	844.1	15.7
0	203859	844.1	15.5
0	203860	844.1	15.3
0	203861	844.1	15.1
0	203862	844.1	14.9
0	203863	844.1	14.7
0	203864	844.1	14.5
0	203865	844.1	14.3
0	203866	844.1	14.1
0	203867	844.1	13.9
0	203868	844.1	13.7
0	203869	844.1	13.5
0	203870	844.1	13.3
0	203871	844.1	13.1
0	203872	844.1	12.9
0	203873	844.1	12.7
0	203874	844.1	12.5
0	203875	844.1	12.3
0	203876	844.1	12.1
0	203877	844.1	11.9
0	203878	844.1	11.7
0	203879	844.1	11.5
0	203880	844.1	11.3
0	203881	844.1	11.1
0	203882	844.1	10.9
0	203883	844.1	10.7
0	203884	844.1	10.5
0	203885	844.1	10.3
0	203886	844.1	10.1
0	203887	844.1	9.9
0	203888	844.1	9.7
0	203889	844.1	9.5
0	203890	844.1	9.3
0	203891	844.1	9.1
0	203892	844.1	8.9
0	203893	844.1	8.7
0	203894	844.1	8.5
0	203895	844.1	8.3
0	203896	844.1	8.1
0	203897	844.1	7.9
0	203898	844.1	7.7
0	203899	844.1	7.5
0	203900	844.1	7.3
0	203901	844.1	7.1
0	203902	844.1	6.9
0	203903	844.1	6.7
0	203904	844.1	6.5
0	203905	844.1	6.3
0	203906	844.1	6.1
0	203907	844.1	5.9
0	203908	844.1	5.7
0	203909	844.1	5.5
0	203910	844.1	5.3
0	203911	844.1	5.1
0	203912	844.1	4.9
0	203913	844.1	4.7
0	203914	844.1	4.5
0	203915	844.1	4.3
0	203916	844.1	4.1
0	203917	844.1	3.9
0	203918	844.1	3.7
0	203919	844.1	3.5
0	203920	844.1	3.3
0	203921	844.1	3.1
0	203922	844.1	2.9
0	203923	844.1	2.7
0	203924	844.1	2.5
0	203925	844.1	2.3
0	203926	844.1	2.1
0	203927	844.1	1.9
0	203928	844.1	1.7
0	203929	844.1	1.5
0	204694	844.2	1.4
0	205115	844.4	1.4
0	205165	844.6	1.4
0	205215	844.8	1.4
0	205269	845	1.4
0	205303	845.2	1.4
0	205336	845.4	1.4
0	205369	845.6	1.4
0	205402	845.8	1.4
0	205432	846	1.4
0	205462	846.2	1.4
0	205492	846.4	1.4
0	205522	846.6	1.4
0	205552	846.8	1.4
0	205583	847	1.4
0	206357	855.3	9.5
0	206358	855.3	9.3
0	206359	855.3	9.1
0	206360	855.3	8.9
0	206361	855.3	8.7
0	206362	855.3	8.5
0	206363	855.3	8.3
0	206364	855.3	8.1
0	206365	855.3	7.9
0	206366	855.3	7.7
0	206367	855.3	7.5
0	206368	855.3	7.3
0	206369	855.3	7.1
0	206370	855.3	6.9
0	206371	855.3	6.7
0	206372	855.3	6.5
0	206373	855.3	6.3
0	206374	855.3	6.1
0	206375	855.3	5.9
0	206376	855.3	5.7
0	206377	855.3	5.5
0	206378	855.3	5.3
0	206379	855.3	5.1
0	206380	855.3	4.9
0	206381	855.3	4.7
0	206382	855.3	4.5
0	206383	855.3	4.3
0	206384	855.3	4.1
0	206385	855.3	3.9
0	206386	855.3	3.7
0	206387	855.3	3.5
0	214836	880.3	28.3
0	214837	880.3	28.1
0	214838	880.3	27.9
0	214839	880.3	27.7
0	214840	880.3	27.5
0	214841	880.3	27.3
0	214842	880.3	27.1
0	214843	880.3	26.9
0	214844	880.3	26.7
0	214845	880.3	26.5
0	214846	880.3	26.3
0	214847	880.3	26.1
0	214848	880.3	25.9
0	214849	880.3	25.7
0	214850	880.3	25.5
0	214851	880.3	25.3
0	214852	880.3	25.1
0	214853	880.3	24.9
0	214854	880.3	24.7
0	214855	880.3	24.5
0	214856	880.3	24.3
0	214857	880.3	24.1
0	214858	880.3	23.9
0	214859	880.3	23.7
0	214860	880.3	23.5
0	214861	880.3	23.3
0	214862	880.3	23.1
0	214863	880.3	22.9
0	214864	880.3	22.7
0	214865	880.3	22.5
0	214866	880.3	22.3
0	214867	880.3	22.1
0	214868	880.3	21.9
0	214869	880.3	21.7
0	214870	880.3	21.5
0	214871	880.3	21.3
0	214872	880.3	21.1
0	214873	880.3	20.9
0	214874	880.3	20.7
0	214875	880.3	20.5
0	214876	880.3	20.3
0	214877	880.3	20.1
0	214878	880.3	19.9
0	214879	880.3	19.7
0	214880	880.3	19.5
0	214881	880.3	19.3
0	214882	880.3	19.1
0	214883	880.3	18.9
0	214884	880.3	18.7
0	214885	880.3	18.5
0	214886	880.3	18.3
0	214887	880.3	18.1
0	214888	880.3	17.9
0	214889	880.3	17.7
0	214890	880.3	17.5
0	214891	880.3	17.3
0	214892	880.3	17.1
0	214893	880.3	16.9
0	214894	880.3	16.7
0	214895	880.3	16.5
0	214896	880.3	16.3
0	214897	880.3	16.1
0	214898	880.3	15.9
0	214899	880.3	15.7
0	214900	880.3	15.5
0	214901	880.3	15.3
0	214902	880.3	15.1
0	214903	880.3	14.9
0	214904	880.3	14.7
0	214905	880.3	14.5
0	214906	880.3	14.3
0	214907	880.3	14.1
0	214908	880.3	13.9
0	214909	880.3	13.7
0	214910	880.3	13.5
0	214911	880.3	13.3
0	214912	880.3	13.1
0	214913	880.3	12.9
0	214914	880.3	12.7
0	214915	880.3	12.5
0	214916	880.3	12.3
0	214917	880.3	12.1
0	214918	880.3	11.9
0	214919	880.3	11.7
0	214920	880.3	11.5
0	214921	880.3	11.3
0	214922	880.3	11.1
0	214923	880.3	10.9
0	214924	880.3	10.7
0	214925	880.3	10.5
0	214926	880.3	10.3
0	214927	880.3	10.1
0	214928	880.3	9.9
0	214929	880.3	9.7
0	214930	880.3	9.5
0	214931	880.3	9.3
0	214932	880.3	9.1
0	214933	880.3	8.9
0	214934	880.3	8.7
0	214935	880.3	8.5
0	214936	880.3	8.3
0	214937	880.3	8.1
0	214938	880.3	7.9
0	214939	880.3	7.7
0	214940	880.3	7.5
0	214941	880.3	7.3
0	214942	880.3	7.1
0	214943	880.3	6.9
0	214944	880.3	6.7
0	214945	880.3	6.5
0	214946	880.3	6.3
0	214947	880.3	6.1
0	214948	880.3	5.9
0	214949	880.3	5.7
0	214950	880.3	5.5
0	214951	880.3	5.3
0	214952	880.3	5.1
0	214953	880.3	4.9
0	214954	880.3	4.7
0	214955	880.3	4.5
0	215133	880.4	4.4
0	215134	880.4	4.2
0	215135	880.4	4
0	215136	880.4	3.8
0	215137	880.4	3.6
0	215138	880.4	3.4
0	215139	880.4	3.2
0	215140	880.4	3
0	215141	880.4	2.8
0	215142	880.4	2.6
0	215143	880.4	2.4
0	215144	880.4	2.2
0	215145	880.4	2
0	215146	880.4	1.8
0	215147	880.4	1.6
0	215148	880.4	1.4
0	215185	880.6	1.4
0	215222	880.8	1.4
0	215261	881	1.4
0	215584	881.2	1.4
0	215620	881.4	1.4
0	215656	881.6	1.4
0	215692	881.8	1.4
0	215731	882	1.4
0	215757	882.2	1.4
0	215783	882.4	1.4
0	215809	882.6	1.4
0	215835	882.8	1.4
0	215865	883	1.4
0	218316	899.1	16.1
0	218317	899.1	15.9
0	218318	899.1	15.7
0	218319	899.1	15.5
0	218320	899.1	15.3
0	218321	899.1	15.1
0	218322	899.1	14.9
0	218323	899.1	14.7
0	218324	899.1	14.5
0	218325	899.1	14.3
0	218326	899.1	14.1
0	218327	899.1	13.9
0	218328	899.1	13.7
0	218329	899.1	13.5
0	218330	899.1	13.3
0	218331	899.1	13.1
0	218332	899.1	12.9
0	218333	899.1	12.7
0	218334	899.1	12.5
0	218335	899.1	12.3
0	223018	914.3	32.5
0	223019	914.3	27.3
0	223020	914.3	32.3
0	223021	914.3	32.1
0	223022	914.3	31.9
0	223023	914.3	31.7
0	223024	914.3	31.5
0	223025	914.3	27.1
0	223026	914.3	26.9
0	223027	914.3	26.7
0	223028	914.3	26.5
0	223029	914.3	26.3
0	223030	914.3	26.1
0	223031	914.3	25.9
0	223032	914.3	25.7
0	223033	914.3	25.5
0	223034	914.3	25.3
0	223035	914.3	25.1
0	223036	914.3	24.9
0	223037	914.3	24.7
0	223038	914.3	24.5
0	223039	914.3	24.3
0	223040	914.3	24.1
0	223041	914.3	23.9
0	223042	914.3	23.7
0	223043	914.3	23.5
0	223044	914.3	23.3
0	223045	914.3	23.1
0	223046	914.3	22.9
0	223047	914.3	22.7
0	223048	914.3	22.5
0	223049	914.3	22.3
0	223050	914.3	22.1
0	223051	914.3	21.9
0	223052	914.3	21.7
0	223053	914.3	21.5
0	223054	914.3	21.3
0	223055	914.3	21.1
0	223056	914.3	20.9
0	223057	914.3	20.7
0	223058	914.3	20.5
0	223059	914.3	20.3
0	223060	914.3	20.1
0	223061	914.3	19.9
0	223062	914.3	19.7
0	223063	914.3	19.5
0	223064	914.3	19.3
0	223065	914.3	19.1
0	223066	914.3	18.9
0	223067	914.3	18.7
0	223068	914.3	18.5
0	223069	914.3	18.3
0	223070	914.3	18.1
0	223071	914.3	17.9
0	223072	914.3	17.7
0	223073	914.3	17.5
0	223074	914.3	17.3
0	223075	914.3	17.1
0	223076	914.3	16.9
0	223077	914.3	16.7
0	223078	914.3	16.5
0	223079	914.3	16.3
0	223080	914.3	16.1
0	223081	914.3	15.9
0	223082	914.3	15.7
0	223083	914.3	15.5
0	223084	914.3	15.3
0	223085	914.3	15.1
0	223086	914.3	14.9
0	223087	914.3	14.7
0	223088	914.3	14.5
0	223089	914.3	14.3
0	223090	914.3	14.1
0	223091	914.3	13.9
0	223092	914.3	13.7
0	223093	914.3	13.5
0	223094	914.3	13.3
0	223095	914.3	13.1
0	223096	914.3	12.9
0	223097	914.3	12.7
0	223098	914.3	12.5
0	223099	914.3	12.3
0	223100	914.3	12.1
0	223101	914.3	11.9
0	223102	914.3	11.7
0	223103	914.3	11.5
0	223104	914.3	11.3
0	223105	914.3	11.1
0	223106	914.3	10.9
0	223107	914.3	10.7
0	223108	914.3	10.5
0	223109	914.3	10.3
0	223110	914.3	10.1
0	223111	914.3	9.9
0	223112	914.3	9.7
0	223113	914.3	9.5
0	223114	914.3	9.3
0	223115	914.3	9.1
0	223116	914.3	8.9
0	223117	914.3	8.7
0	223118	914.3	8.5
0	225868	918.1	12.1
0	225869	918.1	11.9
0	225870	918.1	11.7
0	225871	918.1	11.5
0	225872	918.1	11.3
0	225873	918.1	11.1
0	225874	918.1	10.9
0	225875	918.1	10.7
0	225876	918.1	10.5
0	225877	918.1	10.3
0	225878	918.1	10.1
0	225879	918.1	9.9
0	225880	918.1	9.7
0	225881	918.1	9.5
0	225882	918.1	9.3
0	225883	918.1	9.1
0	225884	918.1	8.9
0	225885	918.1	8.7
0	225886	918.1	8.5
0	225887	918.1	8.3
0	225888	918.1	8.1
0	225889	918.1	7.9
0	225890	918.1	7.7
0	225891	918.1	7.5
0	225892	918.1	7.3
0	225893	918.1	7.1
0	225894	918.1	6.9
0	225895	918.1	6.7
0	225896	918.1	6.5
0	225897	918.1	6.3
0	225898	918.1	6.1
0	225899	918.1	5.9
0	225900	918.1	5.7
0	225901	918.1	5.5
0	225902	918.1	5.3
0	225903	918.1	5.1
0	225904	918.1	4.9
0	225905	918.1	4.7
0	225906	918.1	4.5
0	225907	918.1	4.3
0	225908	918.1	4.1
0	225909	918.1	3.9
0	225910	918.1	3.7
0	225911	918.1	3.5
0	225912	918.1	3.3
0	225913	918.1	3.1
0	225914	918.1	2.9
0	225915	918.1	2.7
0	225916	918.1	2.5
0	225917	918.1	2.3
0	225918	918.1	2.1
0	225919	918.1	1.9
0	225920	918.1	1.7
0	225921	918.1	1.5
0	226215	918.2	1.4
0	226252	918.4	1.4
0	226289	918.6	1.4
0	226326	918.8	1.4
0	226365	919	1.4
0	226398	919.2	1.4
0	227014	919.4	1.4
0	227055	919.6	1.4
0	227096	919.8	1.4
0	227137	920	1.4
0	227161	920.2	1.4
0	227185	920.4	1.4
0	227209	920.6	1.4
0	227233	920.8	1.4
0	227258	921	1.4
0	233223	958.1	38.3
0	233224	958.1	38.1
0	233225	958.1	37.9
0	233226	958.1	37.7
0	233227	958.1	37.5
0	233228	958.1	37.3
0	233229	958.1	37.1
0	233230	958.1	36.9
0	233231	958.1	36.7
0	233232	958.1	36.5
0	233233	958.1	36.3
0	233234	958.1	36.1
0	233235	958.1	35.9
0	233236	958.1	35.7
0	233237	958.1	35.5
0	233238	958.1	35.3
0	233239	958.1	35.1
0	233240	958.1	34.9
0	233241	958.1	34.7
0	233242	958.1	34.5
0	233243	958.1	34.3
0	233244	958.1	34.1
0	233245	958.1	33.9
0	233246	958.1	33.7
0	233247	958.1	33.5
0	233248	958.1	33.3
0	233249	958.1	33.1
0	233250	958.1	32.9
0	233251	958.1	32.7
0	233252	958.1	32.5
0	233253	958.1	32.3
0	233254	958.1	32.1
0	233255	958.1	31.9
0	233256	958.1	31.7
0	233257	958.1	31.5
0	233258	958.1	31.3
0	233259	958.1	31.1
0	233260	958.1	30.9
0	233261	958.1	30.7
0	233262	958.1	30.5
0	233263	958.1	30.3
0	233264	958.1	30.1
0	233265	958.1	29.9
0	233266	958.1	29.7
0	233267	958.1	29.5
0	233268	958.1	29.3
0	233269	958.1	29.1
0	233270	958.1	28.9
0	233271	958.1	28.7
0	233272	958.1	28.5
0	233273	958.1	28.3
0	233274	958.1	28.1
0	233275	958.1	27.9
0	233276	958.1	27.7
0	233277	958.1	27.5
0	233278	958.1	27.3
0	233279	958.1	27.1
0	233280	958.1	26.9
0	233281	958.1	26.7
0	233282	958.1	26.5
0	233283	958.1	26.3
0	233284	958.1	26.1
0	233285	958.1	25.9
0	233286	958.1	25.7
0	233287	958.1	25.5
0	233288	958.1	25.3
0	233289	958.1	25.1
0	233290	958.1	24.9
0	233291	958.1	24.7
0	233292	958.1	24.5
0	233293	958.1	24.3
0	233294	958.1	24.1
0	233295	958.1	23.9
0	233296	958.1	23.7
0	233297	958.1	23.5
0	233298	958.1	23.3
0	233299	958.1	23.1
0	233300	958.1	22.9
0	233301	958.1	22.7
0	233302	958.1	22.5
0	233303	958.1	22.3
0	233304	958.1	22.1
0	233305	958.1	21.9
0	233306	958.1	21.7
0	233307	958.1	21.5
0	233308	958.1	21.3
0	233309	958.1	21.1
0	233310	958.1	20.9
0	233311	958.1	20.7
0	233312	958.1	20.5
0	233313	958.1	20.3
0	233314	958.1	20.1
0	233315	958.1	19.9
0	233316	958.1	19.7
0	233317	958.1	19.5
0	233318	958.1	19.3
0	233319	958.1	19.1
0	233320	958.1	18.9
0	233321	958.1	18.7
0	233322	958.1	18.5
0	233323	958.1	18.3
0	233324	958.1	18.1
0	233325	958.1	17.9
0	233326	958.1	17.7
0	233327	958.1	17.5
0	233328	958.1	17.3
0	233329	958.1	17.1
0	233330	958.1	16.9
0	233331	958.1	16.7
0	233332	958.1	16.5
0	233333	958.1	16.3
0	238250	971.2	29.2
0	238251	971.2	29
0	238252	971.2	28.8
0	238253	971.2	28.6
0	238254	971.2	28.4
0	238255	971.2	28.2
0	238256	971.2	28
0	238257	971.2	27.8
0	238258	971.2	27.6
0	238259	971.2	27.4
0	238260	971.2	27.2
0	238261	971.2	27
0	238262	971.2	26.8
0	238263	971.2	26.6
0	238264	971.2	26.4
0	238265	971.2	26.2
0	238266	971.2	26
0	238267	971.2	25.8
0	238268	971.2	25.6
0	238269	971.2	25.4
0	238270	971.2	25.2
0	238271	971.2	25
0	238272	971.2	24.8
0	238273	971.2	24.6
0	238274	971.2	24.4
0	238275	971.2	24.2
0	238276	971.2	24
0	238277	971.2	23.8
0	238278	971.2	23.6
0	238279	971.2	23.4
0	238280	971.2	23.2
0	238281	971.2	23
0	238282	971.2	22.8
0	238283	971.2	22.6
0	238284	971.2	22.4
0	238285	971.2	22.2
0	238286	971.2	22
0	238287	971.2	21.8
0	238288	971.2	21.6
0	238289	971.2	21.4
0	238290	971.2	21.2
0	238291	971.2	21
0	238292	971.2	20.8
0	238293	971.2	20.6
0	238294	971.2	20.4
0	238295	971.2	20.2
0	238296	971.2	20
0	238297	971.2	19.8
0	238298	971.2	19.6
0	238299	971.2	19.4
0	238300	971.2	19.2
0	238301	971.2	19
0	238302	971.2	18.8
0	238303	971.2	18.6
0	238304	971.2	18.4
0	238305	971.2	18.2
0	238306	971.2	18
0	238307	971.2	17.8
0	238308	971.2	17.6
0	238309	971.2	17.4
0	238310	971.2	17.2
0	238311	971.2	17
0	238312	971.2	16.8
0	238313	971.2	16.6
0	238314	971.2	16.4
0	238315	971.2	16.2
0	238316	971.2	16
0	238317	971.2	15.8
0	238318	971.2	15.6
0	238319	971.2	15.4
0	238320	971.2	15.2
0	238321	971.2	15
0	238322	971.2	14.8
0	238323	971.2	14.6
0	238324	971.2	14.4
0	238325	971.2	14.2
0	238326	971.2	14
0	238327	971.2	13.8
0	238328	971.2	13.6
0	238329	971.2	13.4
0	238330	971.2	13.2
0	238331	971.2	13
0	238332	971.2	12.8
0	238333	971.2	12.6
0	238334	971.2	12.4
0	238335	971.2	12.2
0	238336	971.2	12
0	238337	971.2	11.8
0	238338	971.2	11.6
0	238339	971.2	11.4
0	238340	971.2	11.2
0	238341	971.2	11
0	238342	971.2	10.8
0	238343	971.2	10.6
0	238344	971.2	10.4
0	238345	971.2	10.2
0	238346	971.2	10
0	238347	971.2	9.8
0	238348	971.2	9.6
0	238349	971.2	9.4
0	238350	971.2	9.2
0	238351	971.2	9
0	238352	971.2	8.8
0	238353	971.2	8.6
0	238354	971.2	8.4
0	238355	971.2	8.2
0	238356	971.2	8
0	238357	971.2	7.8
0	238358	971.2	7.6
0	238359	971.2	7.4
0	238360	971.2	7.2
0	238361	971.2	7
0	238362	971.2	6.8
0	238363	971.2	6.6
0	238364	971.2	6.4
0	238365	971.2	6.2
0	238366	971.2	6
0	238367	971.2	5.8
0	238368	971.2	5.6
0	238369	971.2	5.4
0	238370	971.2	5.2
0	238371	971.2	5
0	238372	971.2	4.8
0	238373	971.2	4.6
0	238374	971.2	4.4
0	238375	971.2	4.2
0	238376	971.2	4
0	238377	971.2	3.8
0	238378	971.2	3.6
0	238379	971.2	3.4
0	238380	971.2	3.2
0	238381	971.2	3
0	238382	971.2	2.8
0	238383	971.2	2.6
0	238384	971.2	2.4
0	241523	972.4	3.4
0	241524	972.4	3.2
0	241525	972.4	3
0	241526	972.4	2.8
0	241527	972.4	2.6
0	241528	972.4	2.4
0	241529	972.4	2.2
0	241530	972.4	2
0	241531	972.4	1.8
0	241532	972.4	1.6
0	241533	972.4	1.4
0	242199	972.6	1.4
0	242922	972.8	1.4
0	242965	973	1.4
0	243008	973.2	1.4
0	243051	973.4	1.4
0	243094	973.6	1.4
0	243159	973.8	1.4
0	243203	974	1.4
0	243241	974.2	1.4
0	243279	974.4	1.4
0	243317	974.6	1.4
0	243355	974.8	1.4
0	243515	975	1.4
0	245200	993.3	18.3
0	245201	993.3	18.1
0	245202	993.3	17.9
0	245203	993.3	17.7
0	245204	993.3	17.5
0	245205	993.3	17.3
0	245206	993.3	17.1
0	245207	993.3	16.9
0	245208	993.3	16.7
0	245209	993.3	16.5
0	245210	993.3	16.3
0	245211	993.3	16.1
0	245212	993.3	15.9
0	245213	993.3	15.7
0	245214	993.3	15.5
0	245215	993.3	15.3
0	245216	993.3	15.1
0	245217	993.3	14.9
0	245218	993.3	14.7
0	245219	993.3	14.5
0	245220	993.3	14.3
0	245221	993.3	14.1
0	245222	993.3	13.9
0	245223	993.3	13.7
0	245224	993.3	13.5
0	245225	993.3	13.3
0	245226	993.3	13.1
0	245227	993.3	12.9
0	245228	993.3	12.7
0	245229	993.3	12.5
0	245230	993.3	12.3
0	245231	993.3	12.1
0	245232	993.3	11.9
0	245233	993.3	11.7
0	245234	993.3	11.5
0	245235	993.3	19.5
0	245236	993.3	19.3
0	245237	993.3	19.1
0	245238	993.3	18.9
0	245239	993.3	18.7
0	245240	993.3	18.5


