version 2
run General-0-20250117-13:52:29-198122
attr configname General
attr datetime 20250117-13:52:29
attr experiment General
attr inifile shaw_false.ini
attr iterationvars ""
attr iterationvarsf ""
attr measurement ""
attr network src.dtnsim
attr processid 198122
attr repetition 0
attr replication #0
attr resultdir results
attr runnumber 0
attr seedset 0
param dtnsim.central.contactsFile "\"contactPlan/Contacts.txt\""
param dtnsim.central.contactsFile_A "\"contactPlan/Contacts.txt\""
param dtnsim.central.contactsFile_B "\"contactPlan/Contacts.txt\""
param dtnsim.central.contactIdsToDelete_from_celestialA "\"2 8 11 12 23 26 34 52 54 60 62 63 70 74 75 81 92 95 101 104 107 112 118 126 128 130 131 132 134 138 143 147 154 155 158 166 174 175 185 186 194 195 201 202 203 208 216 217 219 222 225 238 246 255 258 274 280 284 289 294 300 305 313 317 318 327 341 346 353 357 385 387 389 391 393 394 405 411 413 419 421 422 425 432 433 436 437 443 445 447 448 451 461 463 470 471 472 473\""
param dtnsim.central.contactIdsToDelete_from_celestialB "\"6 13 15 18 19 20 24 25 29 32 48 64 78 79 82 85 90 94 100 103 108 109 110 111 115 124 125 129 146 151 156 167 169 180 182 183 187 188 192 196 205 210 218 220 223 231 233 234 235 243 245 248 249 251 254 260 275 278 279 281 286 288 292 293 299 302 303 306 310 312 336 337 340 343 350 354 355 356 360 365 368 371 374 377 384 390 392 397 398 399 400 403 404 412 420 424 429 446 453 455 464 478\""
param dtnsim.central.celestialA_nodes "\"1 2 3\""
param dtnsim.central.celestialB_nodes "\"4 5 6\""
param dtnsim.central.locallyfaultsAware false
param dtnsim.central.mode_two_celestial true
param dtnsim.nodesNumber 6
param dtnsim.node[1].icon "\"receiverdish\""
param dtnsim.node[2..5].icon "\"satellite\""
param dtnsim.node[6].icon "\"receiverdish\""
param dtnsim.node[*].dtn.routing "\"cgrModel350\""
param dtnsim.node[*].dtn.routingType "\"routeListType:allPaths-firstEnding,volumeAware:allContacts,extensionBlock:on,contactPlan:global\""
param dtnsim.node[1].app.enable true
param dtnsim.node[1].app.bundlesNumber "\"8000\""
param dtnsim.node[1].app.start "\"0\""
param dtnsim.node[1].app.destinationEid "\"6\""
param dtnsim.node[1].app.size "\"1500\""
param dtnsim.node[1].app.interval 10

vector 0 dtnsim.node[6].app appBundleReceivedDelayvec:vector ETV
attr interpolationmode none
attr source appBundleReceivedDelay
attr title "appBundleReceivedDelayvec, vector"
0	104924	77437	477
0	104961	77447	477
0	104999	77457	477
0	105036	77467	477
0	105074	77477	477
0	105111	77487	477
0	105148	77497	477
0	105187	77507	477
0	105224	77517	477
0	105262	77527	477
0	105298	77537	477
0	105334	77547	477
0	105372	77557	477
0	105409	77567	477
0	107672	78437	1337
0	107695	78437	1327
0	107701	78437	1317
0	107707	78437	1307
0	107713	78437	1297
0	107719	78437	1287
0	107725	78437	1277
0	107731	78437	1267
0	107737	78437	1257
0	107743	78437	1247
0	107749	78437	1237
0	107755	78437	1227
0	107761	78437	1217
0	107767	78437	1207
0	107773	78437	1197
0	107779	78437	1187
0	107785	78437	1177
0	107791	78437	1167
0	107797	78437	1157
0	107803	78437	1147
0	107809	78437	1137
0	107815	78437	1127
0	107821	78437	1117
0	107827	78437	1107
0	107833	78437	1097
0	107839	78437	1087
0	107845	78437	1077
0	107851	78437	1067
0	107857	78437	1057
0	107863	78437	1047
0	107869	78437	1037
0	107875	78437	1027
0	107881	78437	1017
0	107887	78437	1007
0	107893	78437	477
0	107934	78447	477
0	107992	78457	477
0	108049	78467	477
0	108106	78477	477
0	108163	78487	477
0	108220	78497	477
0	108277	78507	477
0	108335	78517	477
0	108392	78527	477
0	108450	78537	477
0	108507	78547	477
0	108564	78557	477
0	108621	78567	477
0	108680	78577	477
0	108739	78587	477
0	108796	78597	477
0	108853	78607	477
0	108911	78617	477
0	108967	78627	477
0	109023	78637	477
0	109079	78647	477
0	109135	78657	477
0	109191	78667	477
0	109246	78677	477
0	109303	78687	477
0	109358	78697	477
0	109413	78707	477
0	109468	78717	477
0	109523	78727	477
0	109578	78737	477
0	109633	78747	477
0	109688	78757	477
0	109743	78767	477
0	109798	78777	477
0	109853	78787	477
0	109908	78797	477
0	109963	78807	477
0	110020	78817	477
0	110076	78827	477
0	110134	78837	477
0	110190	78847	477
0	110246	78857	477
0	110302	78867	477
0	110358	78877	477
0	110417	78887	477

