version 2
run General-0-20250129-19:15:27-207839
attr configname General
attr datetime 20250129-19:15:27
attr experiment General
attr inifile shaw_exist.ini
attr iterationvars ""
attr iterationvarsf ""
attr measurement ""
attr network src.dtnsim
attr processid 207839
attr repetition 0
attr replication #0
attr resultdir results
attr runnumber 0
attr seedset 0
param dtnsim.central.contactsFile "\"contactPlan/Contacts.txt\""
param dtnsim.central.contactsFile_A "\"contactPlan/Contacts_A.txt\""
param dtnsim.central.contactsFile_B "\"contactPlan/Contacts_B.txt\""
param dtnsim.central.contactIdsToDelete "\"6 9 13 14 15 17 18 23 24 26 29 43 53 64 65 67 69 75 76 77 79 85 87 88 90 93 95 97 100 105 108 117 127 128 136 137 144 145 148 149 151 153 154 157 158 162 170 177 191 194 201 203 206 222 223 230 234 235 238 239 243 244 245 251 254 255 257 258 259 265 269 273 276 277 282 283 287 293 294 297 301 305 308 315 316 318 321 339 340 347 349 353 354 356 359 365 380 384 391 393\""
param dtnsim.central.contactIdsToDelete_from_celestialA "\"13 15 17 23 29 64 67 77 85 95 97 100 105 117 128 137 148 149 154 191 206 230 235 238 244 255 257 258 265 269 273 276 277 283 294 297 308 316 318 339 347 349 356 359 380 391 393\""
param dtnsim.central.contactIdsToDelete_from_celestialB "\"6 9 14 18 24 26 43 53 65 69 75 76 79 87 88 90 93 108 127 136 144 145 151 153 157 158 162 170 177 194 201 203 222 223 234 239 243 245 251 254 259 282 287 293 301 305 315 321 340 353 354 365 384\""
param dtnsim.central.celestialA_nodes "\"1 2 3\""
param dtnsim.central.celestialB_nodes "\"4 5 6\""
param dtnsim.central.locallyfaultsAware true
param dtnsim.central.mode_two_celestial true
param dtnsim.central.faultsAware false
param dtnsim.nodesNumber 6
param dtnsim.node[1].icon "\"receiverdish\""
param dtnsim.node[2..5].icon "\"satellite\""
param dtnsim.node[6].icon "\"receiverdish\""
param dtnsim.node[*].dtn.routing "\"cgrModel350\""
param dtnsim.node[*].dtn.routingType "\"routeListType:allPaths-firstEnding,volumeAware:allContacts,extensionBlock:on,contactPlan:global\""
param dtnsim.node[1].app.enable true
param dtnsim.node[1].app.custodyTransfer true
param dtnsim.node[1].app.bundlesNumber "\"2000\""
param dtnsim.node[1].app.start "\"0\""
param dtnsim.node[1].app.destinationEid "\"6\""
param dtnsim.node[1].app.size "\"1500\""
param dtnsim.node[1].app.interval 1
param dtnsim.node[*].app.custodyTimeout 100000000000000
param dtnsim.node[1].app.ttl 30000

vector 0 dtnsim.node[6].app appBundleReceivedDelayvec:vector ETV
attr interpolationmode none
attr source appBundleReceivedDelay
attr title "appBundleReceivedDelayvec, vector"
0	79286	1458.07	1458.07
0	79287	1458.07	1457.07
0	79288	1458.07	1456.07
0	79289	1458.07	1455.07
0	79290	1458.07	1454.07
0	79291	1458.07	1453.07
0	79292	1458.07	1452.07
0	79293	1458.07	1451.07
0	79294	1458.07	1450.07
0	79295	1458.07	1449.07
0	79296	1458.07	1448.07
0	79297	1458.07	1447.07
0	79298	1458.07	1446.07
0	79299	1458.07	1445.07
0	79300	1458.07	1444.07
0	79301	1458.07	1443.07
0	79302	1458.07	1442.07
0	79303	1458.07	1441.07
0	79304	1458.07	1440.07
0	79305	1458.07	1439.07
0	79306	1458.07	1438.07
0	79307	1458.07	1437.07
0	79308	1458.07	1436.07
0	79309	1458.07	1435.07
0	79310	1458.07	1434.07
0	79311	1458.07	1433.07
0	79312	1458.07	1432.07
0	79313	1458.07	1431.07
0	79314	1458.07	1430.07
0	79315	1458.07	1429.07
0	79316	1458.07	1428.07
0	79317	1458.07	1427.07
0	79318	1458.07	1426.07
0	79319	1458.07	1425.07
0	79320	1458.07	1424.07
0	79321	1458.07	1423.07
0	79322	1458.07	1422.07
0	79323	1458.07	1421.07
0	79324	1458.07	1420.07
0	79325	1458.07	1419.07
0	79326	1458.07	1418.07
0	79327	1458.07	1417.07
0	79328	1458.07	1416.07
0	79329	1458.07	1415.07
0	79330	1458.07	1414.07
0	79331	1458.07	1413.07
0	79332	1458.07	1412.07
0	79333	1458.07	1411.07
0	79334	1458.07	1410.07
0	79335	1458.07	1409.07
0	79336	1458.07	1408.07
0	79337	1458.07	1407.07
0	79338	1458.07	1406.07
0	79339	1458.07	1405.07
0	79340	1458.07	1404.07
0	79341	1458.07	1403.07
0	79342	1458.07	1402.07
0	79343	1458.07	1401.07
0	79344	1458.07	1400.07
0	79345	1458.07	1399.07
0	79346	1458.07	1398.07
0	79347	1458.07	1397.07
0	79348	1458.07	1396.07
0	79349	1458.07	1395.07
0	79350	1458.07	1394.07
0	79351	1458.07	1393.07
0	79352	1458.07	1392.07
0	79353	1458.07	1391.07
0	79354	1458.07	1390.07
0	79355	1458.07	1389.07
0	79356	1458.07	1388.07
0	79357	1458.07	1387.07
0	79358	1458.07	1386.07
0	79359	1458.07	1385.07
0	79360	1458.07	1384.07
0	79361	1458.07	1383.07
0	79362	1458.07	1382.07
0	79363	1458.07	1381.07
0	79364	1458.07	1380.07
0	79365	1458.07	1379.07
0	79366	1458.07	1378.07
0	79367	1458.07	1377.07
0	79368	1458.07	1376.07
0	79369	1458.07	1375.07
0	79370	1458.07	1374.07
0	79371	1458.07	1373.07
0	79372	1458.07	1372.07
0	79373	1458.07	1371.07
0	79374	1458.07	1370.07
0	79375	1458.07	1369.07
0	79376	1458.07	1368.07
0	79377	1458.07	1367.07
0	79378	1458.07	1366.07
0	79379	1458.07	1365.07
0	79380	1458.07	1364.07
0	79381	1458.07	1363.07
0	79382	1458.07	1362.07
0	79383	1458.07	1361.07
0	79384	1458.07	1360.07
0	79385	1458.07	1359.07
0	79386	1458.07	1358.07
0	79387	1458.07	1357.07
0	79388	1458.07	1356.07
0	79389	1458.07	1355.07
0	79390	1458.07	1354.07
0	79391	1458.07	1353.07
0	79392	1458.07	1352.07
0	79393	1458.07	1351.07
0	79394	1458.07	1350.07
0	79395	1458.07	1349.07
0	79396	1458.07	1348.07
0	79397	1458.07	1347.07
0	79398	1458.07	1346.07
0	79399	1458.07	1345.07
0	79400	1458.07	1344.07
0	79401	1458.07	1343.07
0	79402	1458.07	1342.07
0	79403	1458.07	1341.07
0	79404	1458.07	1340.07
0	79405	1458.07	1339.07
0	79406	1458.07	1338.07
0	79407	1458.07	1337.07
0	79408	1458.07	1336.07
0	79409	1458.07	1335.07
0	79410	1458.07	1334.07
0	79411	1458.07	1333.07
0	79412	1458.07	1332.07
0	79413	1458.07	1331.07
0	79414	1458.07	1330.07
0	79415	1458.07	1329.07
0	79416	1458.07	1328.07
0	79417	1458.07	1327.07
0	79418	1458.07	1326.07
0	79419	1458.07	1325.07
0	79420	1458.07	1324.07
0	79421	1458.07	1323.07
0	79422	1458.07	1322.07
0	79423	1458.07	1321.07
0	79424	1458.07	1320.07
0	79425	1458.07	1319.07
0	79426	1458.07	1318.07
0	79427	1458.07	1317.07
0	79428	1458.07	1316.07
0	79429	1458.07	1315.07
0	79430	1458.07	1314.07
0	79431	1458.07	1313.07
0	79432	1458.07	1312.07
0	79433	1458.07	1311.07
0	79434	1458.07	1310.07
0	79435	1458.07	1309.07
0	79436	1458.07	1308.07
0	79437	1458.07	1307.07
0	79438	1458.07	1306.07
0	79439	1458.07	1305.07
0	79440	1458.07	1304.07
0	79441	1458.07	1303.07
0	79442	1458.07	1302.07
0	79443	1458.07	1301.07
0	79444	1458.07	1300.07
0	81763	1459.07	1300.07
0	81870	1460.07	1300.07
0	81977	1461.07	1300.07
0	82084	1462.07	1300.07
0	82191	1463.07	1300.07
0	82298	1464.07	1300.07
0	82405	1465.07	1300.07
0	82512	1466.07	1300.07
0	82619	1467.07	1300.07
0	82726	1468.07	1300.07
0	82833	1469.07	1300.07
0	82940	1470.07	1300.07
0	83047	1471.07	1300.07
0	83154	1472.07	1300.07
0	83261	1473.07	1300.07
0	83368	1474.07	1300.07
0	83475	1475.07	1300.07
0	83582	1476.07	1300.07
0	83689	1477.07	1300.07
0	83796	1478.07	1300.07
0	83903	1479.07	1300.07
0	84010	1480.07	1300.07
0	84117	1481.07	1300.07
0	84224	1482.07	1300.07
0	84331	1483.07	1300.07
0	84438	1484.07	1300.07
0	84545	1485.07	1300.07
0	84652	1486.07	1300.07
0	84759	1487.07	1300.07
0	84866	1488.07	1300.07
0	84973	1489.07	1300.07
0	85080	1490.07	1300.07
0	85187	1491.07	1300.07
0	85294	1492.07	1300.07
0	85401	1493.07	1300.07
0	85508	1494.07	1300.07
0	85615	1495.07	1300.07
0	85722	1496.07	1300.07
0	85829	1497.07	1300.07
0	85936	1498.07	1300.07
0	86043	1499.07	1300.07
0	86150	1500.07	1300.07
0	86257	1501.07	1300.07
0	86364	1502.07	1300.07
0	86471	1503.07	1300.07
0	86578	1504.07	1300.07
0	86685	1505.07	1300.07
0	86792	1506.07	1300.07
0	86899	1507.07	1300.07
0	87006	1508.07	1300.07
0	87113	1509.07	1300.07
0	87220	1510.07	1300.07
0	87327	1511.07	1300.07
0	87434	1512.07	1300.07
0	87541	1513.07	1300.07
0	87648	1514.07	1300.07
0	87755	1515.07	1300.07
0	87862	1516.07	1300.07
0	87969	1517.07	1300.07
0	88076	1518.07	1300.07
0	88183	1519.07	1300.07
0	88290	1520.07	1300.07
0	88397	1521.07	1300.07
0	88504	1522.07	1300.07
0	88611	1523.07	1300.07
0	88718	1524.07	1300.07
0	88825	1525.07	1300.07
0	88932	1526.07	1300.07
0	89039	1527.07	1300.07
0	89146	1528.07	1300.07
0	89253	1529.07	1300.07
0	89360	1530.07	1300.07
0	89467	1531.07	1300.07
0	89574	1532.07	1300.07
0	89681	1533.07	1300.07
0	89788	1534.07	1300.07
0	89895	1535.07	1300.07
0	90002	1536.07	1300.07
0	90109	1537.07	1300.07
0	90216	1538.07	1300.07
0	90323	1539.07	1300.07
0	90430	1540.07	1300.07
0	90537	1541.07	1300.07
0	90644	1542.07	1300.07
0	90751	1543.07	1300.07
0	90858	1544.07	1300.07
0	90965	1545.07	1300.07
0	91072	1546.07	1300.07
0	91179	1547.07	1300.07
0	91286	1548.07	1300.07
0	91393	1549.07	1300.07
0	91500	1550.07	1300.07
0	91607	1551.07	1300.07
0	91714	1552.07	1300.07
0	91821	1553.07	1300.07
0	91928	1554.07	1300.07
0	92035	1555.07	1300.07
0	92142	1556.07	1300.07
0	92249	1557.07	1300.07
0	94105	1558.07	1558.07
0	94106	1558.07	1557.07
0	94107	1558.07	1556.07
0	94108	1558.07	1555.07
0	94109	1558.07	1554.07
0	94110	1558.07	1553.07
0	94111	1558.07	1552.07
0	94112	1558.07	1551.07
0	94113	1558.07	1550.07
0	94114	1558.07	1549.07
0	94115	1558.07	1548.07
0	94116	1558.07	1547.07
0	94117	1558.07	1546.07
0	94118	1558.07	1545.07
0	94119	1558.07	1544.07
0	94120	1558.07	1543.07
0	94121	1558.07	1542.07
0	94122	1558.07	1541.07
0	94123	1558.07	1540.07
0	94124	1558.07	1539.07
0	94125	1558.07	1538.07
0	94126	1558.07	1537.07
0	94127	1558.07	1536.07
0	94128	1558.07	1535.07
0	94129	1558.07	1534.07
0	94130	1558.07	1533.07
0	94131	1558.07	1532.07
0	94132	1558.07	1531.07
0	94133	1558.07	1530.07
0	94134	1558.07	1529.07
0	94135	1558.07	1528.07
0	94136	1558.07	1527.07
0	94137	1558.07	1526.07
0	94138	1558.07	1525.07
0	94139	1558.07	1524.07
0	94140	1558.07	1523.07
0	94141	1558.07	1522.07
0	94142	1558.07	1521.07
0	94143	1558.07	1520.07
0	94144	1558.07	1519.07
0	94145	1558.07	1518.07
0	94146	1558.07	1517.07
0	94147	1558.07	1516.07
0	94148	1558.07	1515.07
0	94149	1558.07	1514.07
0	94150	1558.07	1513.07
0	94151	1558.07	1512.07
0	94152	1558.07	1511.07
0	94153	1558.07	1510.07
0	94154	1558.07	1509.07
0	94155	1558.07	1508.07
0	94156	1558.07	1507.07
0	94157	1558.07	1506.07
0	94158	1558.07	1505.07
0	94159	1558.07	1504.07
0	94160	1558.07	1503.07
0	94161	1558.07	1502.07
0	94162	1558.07	1501.07
0	94163	1558.07	1500.07
0	94164	1558.07	1499.07
0	94165	1558.07	1498.07
0	94166	1558.07	1497.07
0	94167	1558.07	1496.07
0	94168	1558.07	1495.07
0	94169	1558.07	1494.07
0	94170	1558.07	1493.07
0	94171	1558.07	1492.07
0	94172	1558.07	1491.07
0	94173	1558.07	1490.07
0	94174	1558.07	1489.07
0	94175	1558.07	1488.07
0	94176	1558.07	1487.07
0	94177	1558.07	1486.07
0	94178	1558.07	1485.07
0	94179	1558.07	1484.07
0	94180	1558.07	1483.07
0	94181	1558.07	1482.07
0	94182	1558.07	1481.07
0	94183	1558.07	1480.07
0	94184	1558.07	1479.07
0	94185	1558.07	1478.07
0	94186	1558.07	1477.07
0	94187	1558.07	1476.07
0	94188	1558.07	1475.07
0	94189	1558.07	1474.07
0	94190	1558.07	1473.07
0	94191	1558.07	1472.07
0	94192	1558.07	1471.07
0	94193	1558.07	1470.07
0	94194	1558.07	1469.07
0	94195	1558.07	1468.07
0	94196	1558.07	1467.07
0	94197	1558.07	1466.07
0	94198	1558.07	1465.07
0	94199	1558.07	1464.07
0	94200	1558.07	1463.07
0	94201	1558.07	1462.07
0	94202	1558.07	1461.07
0	94203	1558.07	1460.07
0	94204	1558.07	1459.07
0	94205	1558.07	1458.07
0	94206	1558.07	1457.07
0	94207	1558.07	1456.07
0	94208	1558.07	1455.07
0	94209	1558.07	1454.07
0	94210	1558.07	1453.07
0	94211	1558.07	1452.07
0	94212	1558.07	1451.07
0	94213	1558.07	1450.07
0	94214	1558.07	1449.07
0	94215	1558.07	1448.07
0	94216	1558.07	1447.07
0	94217	1558.07	1446.07
0	94218	1558.07	1445.07
0	94219	1558.07	1444.07
0	94220	1558.07	1443.07
0	94221	1558.07	1442.07
0	94222	1558.07	1441.07
0	94223	1558.07	1440.07
0	94224	1558.07	1439.07
0	94225	1558.07	1438.07
0	94226	1558.07	1437.07
0	94227	1558.07	1436.07
0	94228	1558.07	1435.07
0	94229	1558.07	1434.07
0	94230	1558.07	1433.07
0	94231	1558.07	1432.07
0	94232	1558.07	1431.07
0	94233	1558.07	1430.07
0	94234	1558.07	1429.07
0	94235	1558.07	1428.07
0	94236	1558.07	1427.07
0	94237	1558.07	1426.07
0	94238	1558.07	1425.07
0	94239	1558.07	1424.07
0	94240	1558.07	1423.07
0	94241	1558.07	1422.07
0	94242	1558.07	1421.07
0	94243	1558.07	1420.07
0	94244	1558.07	1419.07
0	94245	1558.07	1418.07
0	94246	1558.07	1417.07
0	94247	1558.07	1416.07
0	94248	1558.07	1415.07
0	94249	1558.07	1414.07
0	94250	1558.07	1413.07
0	94251	1558.07	1412.07
0	94252	1558.07	1411.07
0	94253	1558.07	1410.07
0	94254	1558.07	1409.07
0	94255	1558.07	1408.07
0	94256	1558.07	1407.07
0	94257	1558.07	1406.07
0	94258	1558.07	1405.07
0	94259	1558.07	1404.07
0	94260	1558.07	1403.07
0	94261	1558.07	1402.07
0	94262	1558.07	1401.07
0	94263	1558.07	1400.07
0	94264	1558.07	1300.07
0	96608	1559.07	1400.07
0	96609	1559.07	1300.07
0	96741	1560.07	1400.07
0	96742	1560.07	1300.07
0	96874	1561.07	1400.07
0	96875	1561.07	1300.07
0	97007	1562.07	1400.07
0	97008	1562.07	1300.07
0	97140	1563.07	1400.07
0	97141	1563.07	1300.07
0	97273	1564.07	1400.07
0	97274	1564.07	1300.07
0	97406	1565.07	1400.07
0	97407	1565.07	1300.07
0	97539	1566.07	1400.07
0	97540	1566.07	1300.07
0	97672	1567.07	1400.07
0	97673	1567.07	1300.07
0	97805	1568.07	1400.07
0	97806	1568.07	1300.07
0	97938	1569.07	1400.07
0	97939	1569.07	1300.07
0	98071	1570.07	1400.07
0	98072	1570.07	1300.07
0	98204	1571.07	1400.07
0	98205	1571.07	1300.07
0	98337	1572.07	1400.07
0	98338	1572.07	1300.07
0	98470	1573.07	1400.07
0	98471	1573.07	1300.07
0	98603	1574.07	1400.07
0	98604	1574.07	1300.07
0	98736	1575.07	1400.07
0	98737	1575.07	1300.07
0	98869	1576.07	1400.07
0	98870	1576.07	1300.07
0	99002	1577.07	1400.07
0	99003	1577.07	1300.07
0	99135	1578.07	1400.07
0	99136	1578.07	1300.07
0	99268	1579.07	1400.07
0	99269	1579.07	1300.07
0	99401	1580.07	1400.07
0	99402	1580.07	1300.07
0	99534	1581.07	1400.07
0	99535	1581.07	1300.07
0	99667	1582.07	1400.07
0	99668	1582.07	1300.07
0	99800	1583.07	1400.07
0	99801	1583.07	1300.07
0	99933	1584.07	1400.07
0	99934	1584.07	1300.07
0	100066	1585.07	1400.07
0	100067	1585.07	1300.07
0	100199	1586.07	1400.07
0	100200	1586.07	1300.07
0	100332	1587.07	1400.07
0	100333	1587.07	1300.07
0	100465	1588.07	1400.07
0	100466	1588.07	1300.07
0	100598	1589.07	1400.07
0	100599	1589.07	1300.07
0	100731	1590.07	1400.07
0	100732	1590.07	1300.07
0	100864	1591.07	1400.07
0	100865	1591.07	1300.07
0	100997	1592.07	1400.07
0	100998	1592.07	1300.07
0	101130	1593.07	1400.07
0	101131	1593.07	1300.07
0	101263	1594.07	1400.07
0	101264	1594.07	1300.07
0	101396	1595.07	1400.07
0	101397	1595.07	1300.07
0	101529	1596.07	1400.07
0	101530	1596.07	1300.07
0	101662	1597.07	1400.07
0	101663	1597.07	1300.07
0	101795	1598.07	1400.07
0	101796	1598.07	1300.07
0	101928	1599.07	1400.07
0	101929	1599.07	1300.07
0	102061	1600.07	1400.07
0	102062	1600.07	1300.07
0	102194	1601.07	1400.07
0	102195	1601.07	1300.07
0	102327	1602.07	1400.07
0	102328	1602.07	1300.07
0	102460	1603.07	1400.07
0	102461	1603.07	1300.07
0	102593	1604.07	1400.07
0	102594	1604.07	1300.07
0	102726	1605.07	1400.07
0	102727	1605.07	1300.07
0	102859	1606.07	1400.07
0	102860	1606.07	1300.07
0	102992	1607.07	1400.07
0	102993	1607.07	1300.07
0	103125	1608.07	1400.07
0	103126	1608.07	1300.07
0	103258	1609.07	1400.07
0	103259	1609.07	1300.07
0	103391	1610.07	1400.07
0	103392	1610.07	1300.07
0	103524	1611.07	1400.07
0	103525	1611.07	1300.07
0	103657	1612.07	1400.07
0	103658	1612.07	1300.07
0	103790	1613.07	1400.07
0	103791	1613.07	1300.07
0	103923	1614.07	1400.07
0	103924	1614.07	1300.07
0	104056	1615.07	1400.07
0	104057	1615.07	1300.07
0	104189	1616.07	1400.07
0	104190	1616.07	1300.07
0	104322	1617.07	1400.07
0	104323	1617.07	1300.07
0	104455	1618.07	1400.07
0	104456	1618.07	1300.07
0	104588	1619.07	1400.07
0	104589	1619.07	1300.07
0	104721	1620.07	1400.07
0	104722	1620.07	1300.07
0	104854	1621.07	1400.07
0	104855	1621.07	1300.07
0	104987	1622.07	1400.07
0	104988	1622.07	1300.07
0	105120	1623.07	1400.07
0	105121	1623.07	1300.07
0	105253	1624.07	1400.07
0	105254	1624.07	1300.07
0	105386	1625.07	1400.07
0	105387	1625.07	1300.07
0	105519	1626.07	1400.07
0	105520	1626.07	1300.07
0	105652	1627.07	1400.07
0	105653	1627.07	1300.07
0	105785	1628.07	1400.07
0	105786	1628.07	1300.07
0	105918	1629.07	1400.07
0	105919	1629.07	1300.07
0	106051	1630.07	1400.07
0	106052	1630.07	1300.07
0	106184	1631.07	1400.07
0	106185	1631.07	1300.07
0	106317	1632.07	1400.07
0	106318	1632.07	1300.07
0	106450	1633.07	1400.07
0	106451	1633.07	1300.07
0	106583	1634.07	1400.07
0	106584	1634.07	1300.07
0	106716	1635.07	1400.07
0	106717	1635.07	1300.07
0	106849	1636.07	1400.07
0	106850	1636.07	1300.07
0	106982	1637.07	1400.07
0	106983	1637.07	1300.07
0	107115	1638.07	1400.07
0	107116	1638.07	1300.07
0	107248	1639.07	1400.07
0	107249	1639.07	1300.07
0	107381	1640.07	1400.07
0	107382	1640.07	1300.07
0	107514	1641.07	1400.07
0	107515	1641.07	1300.07
0	107647	1642.07	1400.07
0	107648	1642.07	1300.07
0	107780	1643.07	1400.07
0	107781	1643.07	1300.07
0	107913	1644.07	1400.07
0	107914	1644.07	1300.07
0	108046	1645.07	1400.07
0	108047	1645.07	1300.07
0	108179	1646.07	1400.07
0	108180	1646.07	1300.07
0	108312	1647.07	1400.07
0	108313	1647.07	1300.07
0	108445	1648.07	1400.07
0	108446	1648.07	1300.07
0	108578	1649.07	1400.07
0	108579	1649.07	1300.07
0	108711	1650.07	1400.07
0	108712	1650.07	1300.07
0	108844	1651.07	1400.07
0	108845	1651.07	1300.07
0	108977	1652.07	1400.07
0	108978	1652.07	1300.07
0	109110	1653.07	1400.07
0	109111	1653.07	1300.07
0	109243	1654.07	1400.07
0	109244	1654.07	1300.07
0	109376	1655.07	1400.07
0	109377	1655.07	1300.07
0	109509	1656.07	1400.07
0	109510	1656.07	1300.07
0	109642	1657.07	1400.07
0	109643	1657.07	1300.07
0	111524	1658.07	1658.07
0	111525	1658.07	1657.07
0	111526	1658.07	1656.07
0	111527	1658.07	1655.07
0	111528	1658.07	1654.07
0	111529	1658.07	1653.07
0	111530	1658.07	1652.07
0	111531	1658.07	1651.07
0	111532	1658.07	1650.07
0	111533	1658.07	1649.07
0	111534	1658.07	1648.07
0	111535	1658.07	1647.07
0	111536	1658.07	1646.07
0	111537	1658.07	1645.07
0	111538	1658.07	1644.07
0	111539	1658.07	1643.07
0	111540	1658.07	1642.07
0	111541	1658.07	1641.07
0	111542	1658.07	1640.07
0	111543	1658.07	1639.07
0	111544	1658.07	1638.07
0	111545	1658.07	1637.07
0	111546	1658.07	1636.07
0	111547	1658.07	1635.07
0	111548	1658.07	1634.07
0	111549	1658.07	1633.07
0	111550	1658.07	1632.07
0	111551	1658.07	1631.07
0	111552	1658.07	1630.07
0	111553	1658.07	1629.07
0	111554	1658.07	1628.07
0	111555	1658.07	1627.07
0	111556	1658.07	1626.07
0	111557	1658.07	1625.07
0	111558	1658.07	1624.07
0	111559	1658.07	1623.07
0	111560	1658.07	1622.07
0	111561	1658.07	1621.07
0	111562	1658.07	1620.07
0	111563	1658.07	1619.07
0	111564	1658.07	1618.07
0	111565	1658.07	1617.07
0	111566	1658.07	1616.07
0	111567	1658.07	1615.07
0	111568	1658.07	1614.07
0	111569	1658.07	1613.07
0	111570	1658.07	1612.07
0	111571	1658.07	1611.07
0	111572	1658.07	1610.07
0	111573	1658.07	1609.07
0	111574	1658.07	1608.07
0	111575	1658.07	1607.07
0	111576	1658.07	1606.07
0	111577	1658.07	1605.07
0	111578	1658.07	1604.07
0	111579	1658.07	1603.07
0	111580	1658.07	1602.07
0	111581	1658.07	1601.07
0	111582	1658.07	1600.07
0	111583	1658.07	1599.07
0	111584	1658.07	1598.07
0	111585	1658.07	1597.07
0	111586	1658.07	1596.07
0	111587	1658.07	1595.07
0	111588	1658.07	1594.07
0	111589	1658.07	1593.07
0	111590	1658.07	1592.07
0	111591	1658.07	1591.07
0	111592	1658.07	1590.07
0	111593	1658.07	1589.07
0	111594	1658.07	1588.07
0	111595	1658.07	1587.07
0	111596	1658.07	1586.07
0	111597	1658.07	1585.07
0	111598	1658.07	1584.07
0	111599	1658.07	1583.07
0	111600	1658.07	1582.07
0	111601	1658.07	1581.07
0	111602	1658.07	1580.07
0	111603	1658.07	1579.07
0	111604	1658.07	1578.07
0	111605	1658.07	1577.07
0	111606	1658.07	1576.07
0	111607	1658.07	1575.07
0	111608	1658.07	1574.07
0	111609	1658.07	1573.07
0	111610	1658.07	1572.07
0	111611	1658.07	1571.07
0	111612	1658.07	1570.07
0	111613	1658.07	1569.07
0	111614	1658.07	1568.07
0	111615	1658.07	1567.07
0	111616	1658.07	1566.07
0	111617	1658.07	1565.07
0	111618	1658.07	1564.07
0	111619	1658.07	1563.07
0	111620	1658.07	1562.07
0	111621	1658.07	1561.07
0	111622	1658.07	1560.07
0	111623	1658.07	1559.07
0	111624	1658.07	1558.07
0	111625	1658.07	1557.07
0	111626	1658.07	1556.07
0	111627	1658.07	1555.07
0	111628	1658.07	1554.07
0	111629	1658.07	1553.07
0	111630	1658.07	1552.07
0	111631	1658.07	1551.07
0	111632	1658.07	1550.07
0	111633	1658.07	1549.07
0	111634	1658.07	1548.07
0	111635	1658.07	1547.07
0	111636	1658.07	1546.07
0	111637	1658.07	1545.07
0	111638	1658.07	1544.07
0	111639	1658.07	1543.07
0	111640	1658.07	1542.07
0	111641	1658.07	1541.07
0	111642	1658.07	1540.07
0	111643	1658.07	1539.07
0	111644	1658.07	1538.07
0	111645	1658.07	1537.07
0	111646	1658.07	1536.07
0	111647	1658.07	1535.07
0	111648	1658.07	1534.07
0	111649	1658.07	1533.07
0	111650	1658.07	1532.07
0	111651	1658.07	1531.07
0	111652	1658.07	1530.07
0	111653	1658.07	1529.07
0	111654	1658.07	1528.07
0	111655	1658.07	1527.07
0	111656	1658.07	1526.07
0	111657	1658.07	1525.07
0	111658	1658.07	1524.07
0	111659	1658.07	1523.07
0	111660	1658.07	1522.07
0	111661	1658.07	1521.07
0	111662	1658.07	1520.07
0	111663	1658.07	1519.07
0	111664	1658.07	1518.07
0	111665	1658.07	1517.07
0	111666	1658.07	1516.07
0	111667	1658.07	1515.07
0	111668	1658.07	1514.07
0	111669	1658.07	1513.07
0	111670	1658.07	1512.07
0	111671	1658.07	1511.07
0	111672	1658.07	1510.07
0	111673	1658.07	1509.07
0	111674	1658.07	1508.07
0	111675	1658.07	1507.07
0	111676	1658.07	1506.07
0	111677	1658.07	1505.07
0	111678	1658.07	1504.07
0	111679	1658.07	1503.07
0	111680	1658.07	1502.07
0	111681	1658.07	1501.07
0	111682	1658.07	1500.07
0	111683	1658.07	1400.07
0	111684	1658.07	1300.07
0	114053	1659.07	1500.07
0	114054	1659.07	1400.07
0	114055	1659.07	1300.07
0	114212	1660.07	1500.07
0	114213	1660.07	1400.07
0	114214	1660.07	1300.07
0	114371	1661.07	1500.07
0	114372	1661.07	1400.07
0	114373	1661.07	1300.07
0	114530	1662.07	1500.07
0	114531	1662.07	1400.07
0	114532	1662.07	1300.07
0	114689	1663.07	1500.07
0	114690	1663.07	1400.07
0	114691	1663.07	1300.07
0	114848	1664.07	1500.07
0	114849	1664.07	1400.07
0	114850	1664.07	1300.07
0	115007	1665.07	1500.07
0	115008	1665.07	1400.07
0	115009	1665.07	1300.07
0	115166	1666.07	1500.07
0	115167	1666.07	1400.07
0	115168	1666.07	1300.07
0	115325	1667.07	1500.07
0	115326	1667.07	1400.07
0	115327	1667.07	1300.07
0	115484	1668.07	1500.07
0	115485	1668.07	1400.07
0	115486	1668.07	1300.07
0	115643	1669.07	1500.07
0	115644	1669.07	1400.07
0	115645	1669.07	1300.07
0	115802	1670.07	1500.07
0	115803	1670.07	1400.07
0	115804	1670.07	1300.07
0	115961	1671.07	1500.07
0	115962	1671.07	1400.07
0	115963	1671.07	1300.07
0	116120	1672.07	1500.07
0	116121	1672.07	1400.07
0	116122	1672.07	1300.07
0	116279	1673.07	1500.07
0	116280	1673.07	1400.07
0	116281	1673.07	1300.07
0	116438	1674.07	1500.07
0	116439	1674.07	1400.07
0	116440	1674.07	1300.07
0	116597	1675.07	1500.07
0	116598	1675.07	1400.07
0	116599	1675.07	1300.07
0	116756	1676.07	1500.07
0	116757	1676.07	1400.07
0	116758	1676.07	1300.07
0	116915	1677.07	1500.07
0	116916	1677.07	1400.07
0	116917	1677.07	1300.07
0	117074	1678.07	1500.07
0	117075	1678.07	1400.07
0	117076	1678.07	1300.07
0	117233	1679.07	1500.07
0	117234	1679.07	1400.07
0	117235	1679.07	1300.07
0	117392	1680.07	1500.07
0	117393	1680.07	1400.07
0	117394	1680.07	1300.07
0	117551	1681.07	1500.07
0	117552	1681.07	1400.07
0	117553	1681.07	1300.07
0	117710	1682.07	1500.07
0	117711	1682.07	1400.07
0	117712	1682.07	1300.07
0	117869	1683.07	1500.07
0	117870	1683.07	1400.07
0	117871	1683.07	1300.07
0	118028	1684.07	1500.07
0	118029	1684.07	1400.07
0	118030	1684.07	1300.07
0	118187	1685.07	1500.07
0	118188	1685.07	1400.07
0	118189	1685.07	1300.07
0	118346	1686.07	1500.07
0	118347	1686.07	1400.07
0	118348	1686.07	1300.07
0	118505	1687.07	1500.07
0	118506	1687.07	1400.07
0	118507	1687.07	1300.07
0	118664	1688.07	1500.07
0	118665	1688.07	1400.07
0	118666	1688.07	1300.07
0	118823	1689.07	1500.07
0	118824	1689.07	1400.07
0	118825	1689.07	1300.07
0	118982	1690.07	1500.07
0	118983	1690.07	1400.07
0	118984	1690.07	1300.07
0	119141	1691.07	1500.07
0	119142	1691.07	1400.07
0	119143	1691.07	1300.07
0	119300	1692.07	1500.07
0	119301	1692.07	1400.07
0	119302	1692.07	1300.07
0	119459	1693.07	1500.07
0	119460	1693.07	1400.07
0	119461	1693.07	1300.07
0	119618	1694.07	1500.07
0	119619	1694.07	1400.07
0	119620	1694.07	1300.07
0	119777	1695.07	1500.07
0	119778	1695.07	1400.07
0	119779	1695.07	1300.07
0	119936	1696.07	1500.07
0	119937	1696.07	1400.07
0	119938	1696.07	1300.07
0	120095	1697.07	1500.07
0	120096	1697.07	1400.07
0	120097	1697.07	1300.07
0	120254	1698.07	1500.07
0	120255	1698.07	1400.07
0	120256	1698.07	1300.07
0	120413	1699.07	1500.07
0	120414	1699.07	1400.07
0	120415	1699.07	1300.07
0	120572	1700.07	1500.07
0	120573	1700.07	1400.07
0	120574	1700.07	1300.07
0	120731	1701.07	1500.07
0	120732	1701.07	1400.07
0	120733	1701.07	1300.07
0	120890	1702.07	1500.07
0	120891	1702.07	1400.07
0	120892	1702.07	1300.07
0	121049	1703.07	1500.07
0	121050	1703.07	1400.07
0	121051	1703.07	1300.07
0	121208	1704.07	1500.07
0	121209	1704.07	1400.07
0	121210	1704.07	1300.07
0	121367	1705.07	1500.07
0	121368	1705.07	1400.07
0	121369	1705.07	1300.07
0	121526	1706.07	1500.07
0	121527	1706.07	1400.07
0	121528	1706.07	1300.07
0	121685	1707.07	1500.07
0	121686	1707.07	1400.07
0	121687	1707.07	1300.07
0	121844	1708.07	1500.07
0	121845	1708.07	1400.07
0	121846	1708.07	1300.07
0	122003	1709.07	1500.07
0	122004	1709.07	1400.07
0	122005	1709.07	1300.07
0	122162	1710.07	1500.07
0	122163	1710.07	1400.07
0	122164	1710.07	1300.07
0	122321	1711.07	1500.07
0	122322	1711.07	1400.07
0	122323	1711.07	1300.07
0	122480	1712.07	1500.07
0	122481	1712.07	1400.07
0	122482	1712.07	1300.07
0	122639	1713.07	1500.07
0	122640	1713.07	1400.07
0	122641	1713.07	1300.07
0	122798	1714.07	1500.07
0	122799	1714.07	1400.07
0	122800	1714.07	1300.07
0	122957	1715.07	1500.07
0	122958	1715.07	1400.07
0	122959	1715.07	1300.07
0	123116	1716.07	1500.07
0	123117	1716.07	1400.07
0	123118	1716.07	1300.07
0	123275	1717.07	1500.07
0	123276	1717.07	1400.07
0	123277	1717.07	1300.07
0	123434	1718.07	1500.07
0	123435	1718.07	1400.07
0	123436	1718.07	1300.07
0	123593	1719.07	1500.07
0	123594	1719.07	1400.07
0	123595	1719.07	1300.07
0	123752	1720.07	1500.07
0	123753	1720.07	1400.07
0	123754	1720.07	1300.07
0	123911	1721.07	1500.07
0	123912	1721.07	1400.07
0	123913	1721.07	1300.07
0	124070	1722.07	1500.07
0	124071	1722.07	1400.07
0	124072	1722.07	1300.07
0	124229	1723.07	1500.07
0	124230	1723.07	1400.07
0	124231	1723.07	1300.07
0	124388	1724.07	1500.07
0	124389	1724.07	1400.07
0	124390	1724.07	1300.07
0	124547	1725.07	1500.07
0	124548	1725.07	1400.07
0	124549	1725.07	1300.07
0	124706	1726.07	1500.07
0	124707	1726.07	1400.07
0	124708	1726.07	1300.07
0	124865	1727.07	1500.07
0	124866	1727.07	1400.07
0	124867	1727.07	1300.07
0	125024	1728.07	1500.07
0	125025	1728.07	1400.07
0	125026	1728.07	1300.07
0	125183	1729.07	1500.07
0	125184	1729.07	1400.07
0	125185	1729.07	1300.07
0	125342	1730.07	1500.07
0	125343	1730.07	1400.07
0	125344	1730.07	1300.07
0	125501	1731.07	1500.07
0	125502	1731.07	1400.07
0	125503	1731.07	1300.07
0	125660	1732.07	1500.07
0	125661	1732.07	1400.07
0	125662	1732.07	1300.07
0	125819	1733.07	1500.07
0	125820	1733.07	1400.07
0	125821	1733.07	1300.07
0	125978	1734.07	1500.07
0	125979	1734.07	1400.07
0	125980	1734.07	1300.07
0	126137	1735.07	1500.07
0	126138	1735.07	1400.07
0	126139	1735.07	1300.07
0	126296	1736.07	1500.07
0	126297	1736.07	1400.07
0	126298	1736.07	1300.07
0	126455	1737.07	1500.07
0	126456	1737.07	1400.07
0	126457	1737.07	1300.07
0	126614	1738.07	1500.07
0	126615	1738.07	1400.07
0	126616	1738.07	1300.07
0	126773	1739.07	1500.07
0	126774	1739.07	1400.07
0	126775	1739.07	1300.07
0	126932	1740.07	1500.07
0	126933	1740.07	1400.07
0	126934	1740.07	1300.07
0	127091	1741.07	1500.07
0	127092	1741.07	1400.07
0	127093	1741.07	1300.07
0	127250	1742.07	1500.07
0	127251	1742.07	1400.07
0	127252	1742.07	1300.07
0	127409	1743.07	1500.07
0	127410	1743.07	1400.07
0	127411	1743.07	1300.07
0	127568	1744.07	1500.07
0	127569	1744.07	1400.07
0	127570	1744.07	1300.07
0	127727	1745.07	1500.07
0	127728	1745.07	1400.07
0	127729	1745.07	1300.07
0	127886	1746.07	1500.07
0	127887	1746.07	1400.07
0	127888	1746.07	1300.07
0	128045	1747.07	1500.07
0	128046	1747.07	1400.07
0	128047	1747.07	1300.07
0	128204	1748.07	1500.07
0	128205	1748.07	1400.07
0	128206	1748.07	1300.07
0	128363	1749.07	1500.07
0	128364	1749.07	1400.07
0	128365	1749.07	1300.07
0	128522	1750.07	1500.07
0	128523	1750.07	1400.07
0	128524	1750.07	1300.07
0	128681	1751.07	1500.07
0	128682	1751.07	1400.07
0	128683	1751.07	1300.07
0	128840	1752.07	1500.07
0	128841	1752.07	1400.07
0	128842	1752.07	1300.07
0	128999	1753.07	1500.07
0	129000	1753.07	1400.07
0	129001	1753.07	1300.07
0	129158	1754.07	1500.07
0	129159	1754.07	1400.07
0	129160	1754.07	1300.07
0	129317	1755.07	1500.07
0	129318	1755.07	1400.07
0	129319	1755.07	1300.07
0	129476	1756.07	1500.07
0	129477	1756.07	1400.07
0	129478	1756.07	1300.07
0	129635	1757.07	1500.07
0	129636	1757.07	1400.07
0	129637	1757.07	1300.07
0	131543	1758.07	1758.07
0	131544	1758.07	1757.07
0	131545	1758.07	1756.07
0	131546	1758.07	1755.07
0	131547	1758.07	1754.07
0	131548	1758.07	1753.07
0	131549	1758.07	1752.07
0	131550	1758.07	1751.07
0	131551	1758.07	1750.07
0	131552	1758.07	1749.07
0	131553	1758.07	1748.07
0	131554	1758.07	1747.07
0	131555	1758.07	1746.07
0	131556	1758.07	1745.07
0	131557	1758.07	1744.07
0	131558	1758.07	1743.07
0	131559	1758.07	1742.07
0	131560	1758.07	1741.07
0	131561	1758.07	1740.07
0	131562	1758.07	1739.07
0	131563	1758.07	1738.07
0	131564	1758.07	1737.07
0	131565	1758.07	1736.07
0	131566	1758.07	1735.07
0	131567	1758.07	1734.07
0	131568	1758.07	1733.07
0	131569	1758.07	1732.07
0	131570	1758.07	1731.07
0	131571	1758.07	1730.07
0	131572	1758.07	1729.07
0	131573	1758.07	1728.07
0	131574	1758.07	1727.07
0	131575	1758.07	1726.07
0	131576	1758.07	1725.07
0	131577	1758.07	1724.07
0	131578	1758.07	1723.07
0	131579	1758.07	1722.07
0	131580	1758.07	1721.07
0	131581	1758.07	1720.07
0	131582	1758.07	1719.07
0	131583	1758.07	1718.07
0	131584	1758.07	1717.07
0	131585	1758.07	1716.07
0	131586	1758.07	1715.07
0	131587	1758.07	1714.07
0	131588	1758.07	1713.07
0	131589	1758.07	1712.07
0	131590	1758.07	1711.07
0	131591	1758.07	1710.07
0	131592	1758.07	1709.07
0	131593	1758.07	1708.07
0	131594	1758.07	1707.07
0	131595	1758.07	1706.07
0	131596	1758.07	1705.07
0	131597	1758.07	1704.07
0	131598	1758.07	1703.07
0	131599	1758.07	1702.07
0	131600	1758.07	1701.07
0	131601	1758.07	1700.07
0	131602	1758.07	1699.07
0	131603	1758.07	1698.07
0	131604	1758.07	1697.07
0	131605	1758.07	1696.07
0	131606	1758.07	1695.07
0	131607	1758.07	1694.07
0	131608	1758.07	1693.07
0	131609	1758.07	1692.07
0	131610	1758.07	1691.07
0	131611	1758.07	1690.07
0	131612	1758.07	1689.07
0	131613	1758.07	1688.07
0	131614	1758.07	1687.07
0	131615	1758.07	1686.07
0	131616	1758.07	1685.07
0	131617	1758.07	1684.07
0	131618	1758.07	1683.07
0	131619	1758.07	1682.07
0	131620	1758.07	1681.07
0	131621	1758.07	1680.07
0	131622	1758.07	1679.07
0	131623	1758.07	1678.07
0	131624	1758.07	1677.07
0	131625	1758.07	1676.07
0	131626	1758.07	1675.07
0	131627	1758.07	1674.07
0	131628	1758.07	1673.07
0	131629	1758.07	1672.07
0	131630	1758.07	1671.07
0	131631	1758.07	1670.07
0	131632	1758.07	1669.07
0	131633	1758.07	1668.07
0	131634	1758.07	1667.07
0	131635	1758.07	1666.07
0	131636	1758.07	1665.07
0	131637	1758.07	1664.07
0	131638	1758.07	1663.07
0	131639	1758.07	1662.07
0	131640	1758.07	1661.07
0	131641	1758.07	1660.07
0	131642	1758.07	1659.07
0	131643	1758.07	1658.07
0	131644	1758.07	1657.07
0	131645	1758.07	1656.07
0	131646	1758.07	1655.07
0	131647	1758.07	1654.07
0	131648	1758.07	1653.07
0	131649	1758.07	1652.07
0	131650	1758.07	1651.07
0	131651	1758.07	1650.07
0	131652	1758.07	1649.07
0	131653	1758.07	1648.07
0	131654	1758.07	1647.07
0	131655	1758.07	1646.07
0	131656	1758.07	1645.07
0	131657	1758.07	1644.07
0	131658	1758.07	1643.07
0	131659	1758.07	1642.07
0	131660	1758.07	1641.07
0	131661	1758.07	1640.07
0	131662	1758.07	1639.07
0	131663	1758.07	1638.07
0	131664	1758.07	1637.07
0	131665	1758.07	1636.07
0	131666	1758.07	1635.07
0	131667	1758.07	1634.07
0	131668	1758.07	1633.07
0	131669	1758.07	1632.07
0	131670	1758.07	1631.07
0	131671	1758.07	1630.07
0	131672	1758.07	1629.07
0	131673	1758.07	1628.07
0	131674	1758.07	1627.07
0	131675	1758.07	1626.07
0	131676	1758.07	1625.07
0	131677	1758.07	1624.07
0	131678	1758.07	1623.07
0	131679	1758.07	1622.07
0	131680	1758.07	1621.07
0	131681	1758.07	1620.07
0	131682	1758.07	1619.07
0	131683	1758.07	1618.07
0	131684	1758.07	1617.07
0	131685	1758.07	1616.07
0	131686	1758.07	1615.07
0	131687	1758.07	1614.07
0	131688	1758.07	1613.07
0	131689	1758.07	1612.07
0	131690	1758.07	1611.07
0	131691	1758.07	1610.07
0	131692	1758.07	1609.07
0	131693	1758.07	1608.07
0	131694	1758.07	1607.07
0	131695	1758.07	1606.07
0	131696	1758.07	1605.07
0	131697	1758.07	1604.07
0	131698	1758.07	1603.07
0	131699	1758.07	1602.07
0	131700	1758.07	1601.07
0	131701	1758.07	1600.07
0	131702	1758.07	1500.07
0	131703	1758.07	1400.07
0	131704	1758.07	1300.07
0	134098	1759.07	1600.07
0	134099	1759.07	1500.07
0	134100	1759.07	1400.07
0	134101	1759.07	1300.07
0	134283	1760.07	1600.07
0	134284	1760.07	1500.07
0	134285	1760.07	1400.07
0	134286	1760.07	1300.07
0	134468	1761.07	1600.07
0	134469	1761.07	1500.07
0	134470	1761.07	1400.07
0	134471	1761.07	1300.07
0	134653	1762.07	1600.07
0	134654	1762.07	1500.07
0	134655	1762.07	1400.07
0	134656	1762.07	1300.07
0	134838	1763.07	1600.07
0	134839	1763.07	1500.07
0	134840	1763.07	1400.07
0	134841	1763.07	1300.07
0	135023	1764.07	1600.07
0	135024	1764.07	1500.07
0	135025	1764.07	1400.07
0	135026	1764.07	1300.07
0	135208	1765.07	1600.07
0	135209	1765.07	1500.07
0	135210	1765.07	1400.07
0	135211	1765.07	1300.07
0	135393	1766.07	1600.07
0	135394	1766.07	1500.07
0	135395	1766.07	1400.07
0	135396	1766.07	1300.07
0	135578	1767.07	1600.07
0	135579	1767.07	1500.07
0	135580	1767.07	1400.07
0	135581	1767.07	1300.07
0	135763	1768.07	1600.07
0	135764	1768.07	1500.07
0	135765	1768.07	1400.07
0	135766	1768.07	1300.07
0	135948	1769.07	1600.07
0	135949	1769.07	1500.07
0	135950	1769.07	1400.07
0	135951	1769.07	1300.07
0	136133	1770.07	1600.07
0	136134	1770.07	1500.07
0	136135	1770.07	1400.07
0	136136	1770.07	1300.07
0	136318	1771.07	1600.07
0	136319	1771.07	1500.07
0	136320	1771.07	1400.07
0	136321	1771.07	1300.07
0	136503	1772.07	1600.07
0	136504	1772.07	1500.07
0	136505	1772.07	1400.07
0	136506	1772.07	1300.07
0	136688	1773.07	1600.07
0	136689	1773.07	1500.07
0	136690	1773.07	1400.07
0	136691	1773.07	1300.07
0	136873	1774.07	1600.07
0	136874	1774.07	1500.07
0	136875	1774.07	1400.07
0	136876	1774.07	1300.07
0	137058	1775.07	1600.07
0	137059	1775.07	1500.07
0	137060	1775.07	1400.07
0	137061	1775.07	1300.07
0	137243	1776.07	1600.07
0	137244	1776.07	1500.07
0	137245	1776.07	1400.07
0	137246	1776.07	1300.07
0	137428	1777.07	1600.07
0	137429	1777.07	1500.07
0	137430	1777.07	1400.07
0	137431	1777.07	1300.07
0	137613	1778.07	1600.07
0	137614	1778.07	1500.07
0	137615	1778.07	1400.07
0	137616	1778.07	1300.07
0	137798	1779.07	1600.07
0	137799	1779.07	1500.07
0	137800	1779.07	1400.07
0	137801	1779.07	1300.07
0	137983	1780.07	1600.07
0	137984	1780.07	1500.07
0	137985	1780.07	1400.07
0	137986	1780.07	1300.07
0	138168	1781.07	1600.07
0	138169	1781.07	1500.07
0	138170	1781.07	1400.07
0	138171	1781.07	1300.07
0	138353	1782.07	1600.07
0	138354	1782.07	1500.07
0	138355	1782.07	1400.07
0	138356	1782.07	1300.07
0	138538	1783.07	1600.07
0	138539	1783.07	1500.07
0	138540	1783.07	1400.07
0	138541	1783.07	1300.07
0	138723	1784.07	1600.07
0	138724	1784.07	1500.07
0	138725	1784.07	1400.07
0	138726	1784.07	1300.07
0	138908	1785.07	1600.07
0	138909	1785.07	1500.07
0	138910	1785.07	1400.07
0	138911	1785.07	1300.07
0	139093	1786.07	1600.07
0	139094	1786.07	1500.07
0	139095	1786.07	1400.07
0	139096	1786.07	1300.07
0	139278	1787.07	1600.07
0	139279	1787.07	1500.07
0	139280	1787.07	1400.07
0	139281	1787.07	1300.07
0	139463	1788.07	1600.07
0	139464	1788.07	1500.07
0	139465	1788.07	1400.07
0	139466	1788.07	1300.07
0	139648	1789.07	1600.07
0	139649	1789.07	1500.07
0	139650	1789.07	1400.07
0	139651	1789.07	1300.07
0	139833	1790.07	1600.07
0	139834	1790.07	1500.07
0	139835	1790.07	1400.07
0	139836	1790.07	1300.07
0	140018	1791.07	1600.07
0	140019	1791.07	1500.07
0	140020	1791.07	1400.07
0	140021	1791.07	1300.07
0	140203	1792.07	1600.07
0	140204	1792.07	1500.07
0	140205	1792.07	1400.07
0	140206	1792.07	1300.07
0	140388	1793.07	1600.07
0	140389	1793.07	1500.07
0	140390	1793.07	1400.07
0	140391	1793.07	1300.07
0	140573	1794.07	1600.07
0	140574	1794.07	1500.07
0	140575	1794.07	1400.07
0	140576	1794.07	1300.07
0	140758	1795.07	1600.07
0	140759	1795.07	1500.07
0	140760	1795.07	1400.07
0	140761	1795.07	1300.07
0	140943	1796.07	1600.07
0	140944	1796.07	1500.07
0	140945	1796.07	1400.07
0	140946	1796.07	1300.07
0	141128	1797.07	1600.07
0	141129	1797.07	1500.07
0	141130	1797.07	1400.07
0	141131	1797.07	1300.07
0	141313	1798.07	1600.07
0	141314	1798.07	1500.07
0	141315	1798.07	1400.07
0	141316	1798.07	1300.07
0	141498	1799.07	1600.07
0	141499	1799.07	1500.07
0	141500	1799.07	1400.07
0	141501	1799.07	1300.07
0	141683	1800.07	1600.07
0	141684	1800.07	1500.07
0	141685	1800.07	1400.07
0	141686	1800.07	1300.07
0	141868	1801.07	1600.07
0	141869	1801.07	1500.07
0	141870	1801.07	1400.07
0	141871	1801.07	1300.07
0	142053	1802.07	1600.07
0	142054	1802.07	1500.07
0	142055	1802.07	1400.07
0	142056	1802.07	1300.07
0	142238	1803.07	1600.07
0	142239	1803.07	1500.07
0	142240	1803.07	1400.07
0	142241	1803.07	1300.07
0	142423	1804.07	1600.07
0	142424	1804.07	1500.07
0	142425	1804.07	1400.07
0	142426	1804.07	1300.07
0	142608	1805.07	1600.07
0	142609	1805.07	1500.07
0	142610	1805.07	1400.07
0	142611	1805.07	1300.07
0	142793	1806.07	1600.07
0	142794	1806.07	1500.07
0	142795	1806.07	1400.07
0	142796	1806.07	1300.07
0	142978	1807.07	1600.07
0	142979	1807.07	1500.07
0	142980	1807.07	1400.07
0	142981	1807.07	1300.07
0	143163	1808.07	1600.07
0	143164	1808.07	1500.07
0	143165	1808.07	1400.07
0	143166	1808.07	1300.07
0	143348	1809.07	1600.07
0	143349	1809.07	1500.07
0	143350	1809.07	1400.07
0	143351	1809.07	1300.07
0	143533	1810.07	1600.07
0	143534	1810.07	1500.07
0	143535	1810.07	1400.07
0	143536	1810.07	1300.07
0	143718	1811.07	1600.07
0	143719	1811.07	1500.07
0	143720	1811.07	1400.07
0	143721	1811.07	1300.07
0	143903	1812.07	1600.07
0	143904	1812.07	1500.07
0	143905	1812.07	1400.07
0	143906	1812.07	1300.07
0	144088	1813.07	1600.07
0	144089	1813.07	1500.07
0	144090	1813.07	1400.07
0	144091	1813.07	1300.07
0	144273	1814.07	1600.07
0	144274	1814.07	1500.07
0	144275	1814.07	1400.07
0	144276	1814.07	1300.07
0	144458	1815.07	1600.07
0	144459	1815.07	1500.07
0	144460	1815.07	1400.07
0	144461	1815.07	1300.07
0	144643	1816.07	1600.07
0	144644	1816.07	1500.07
0	144645	1816.07	1400.07
0	144646	1816.07	1300.07
0	144828	1817.07	1600.07
0	144829	1817.07	1500.07
0	144830	1817.07	1400.07
0	144831	1817.07	1300.07
0	145013	1818.07	1600.07
0	145014	1818.07	1500.07
0	145015	1818.07	1400.07
0	145016	1818.07	1300.07
0	145198	1819.07	1600.07
0	145199	1819.07	1500.07
0	145200	1819.07	1400.07
0	145201	1819.07	1300.07
0	145383	1820.07	1600.07
0	145384	1820.07	1500.07
0	145385	1820.07	1400.07
0	145386	1820.07	1300.07
0	145568	1821.07	1600.07
0	145569	1821.07	1500.07
0	145570	1821.07	1400.07
0	145571	1821.07	1300.07
0	145753	1822.07	1600.07
0	145754	1822.07	1500.07
0	145755	1822.07	1400.07
0	145756	1822.07	1300.07
0	145938	1823.07	1600.07
0	145939	1823.07	1500.07
0	145940	1823.07	1400.07
0	145941	1823.07	1300.07
0	146123	1824.07	1600.07
0	146124	1824.07	1500.07
0	146125	1824.07	1400.07
0	146126	1824.07	1300.07
0	146308	1825.07	1600.07
0	146309	1825.07	1500.07
0	146310	1825.07	1400.07
0	146311	1825.07	1300.07
0	146493	1826.07	1600.07
0	146494	1826.07	1500.07
0	146495	1826.07	1400.07
0	146496	1826.07	1300.07
0	146678	1827.07	1600.07
0	146679	1827.07	1500.07
0	146680	1827.07	1400.07
0	146681	1827.07	1300.07
0	146863	1828.07	1600.07
0	146864	1828.07	1500.07
0	146865	1828.07	1400.07
0	146866	1828.07	1300.07
0	147048	1829.07	1600.07
0	147049	1829.07	1500.07
0	147050	1829.07	1400.07
0	147051	1829.07	1300.07
0	147233	1830.07	1600.07
0	147234	1830.07	1500.07
0	147235	1830.07	1400.07
0	147236	1830.07	1300.07
0	147418	1831.07	1600.07
0	147419	1831.07	1500.07
0	147420	1831.07	1400.07
0	147421	1831.07	1300.07
0	147603	1832.07	1600.07
0	147604	1832.07	1500.07
0	147605	1832.07	1400.07
0	147606	1832.07	1300.07
0	147788	1833.07	1600.07
0	147789	1833.07	1500.07
0	147790	1833.07	1400.07
0	147791	1833.07	1300.07
0	147973	1834.07	1600.07
0	147974	1834.07	1500.07
0	147975	1834.07	1400.07
0	147976	1834.07	1300.07
0	148158	1835.07	1600.07
0	148159	1835.07	1500.07
0	148160	1835.07	1400.07
0	148161	1835.07	1300.07
0	148343	1836.07	1600.07
0	148344	1836.07	1500.07
0	148345	1836.07	1400.07
0	148346	1836.07	1300.07
0	148528	1837.07	1600.07
0	148529	1837.07	1500.07
0	148530	1837.07	1400.07
0	148531	1837.07	1300.07
0	148713	1838.07	1600.07
0	148714	1838.07	1500.07
0	148715	1838.07	1400.07
0	148716	1838.07	1300.07
0	148898	1839.07	1600.07
0	148899	1839.07	1500.07
0	148900	1839.07	1400.07
0	148901	1839.07	1300.07
0	149083	1840.07	1600.07
0	149084	1840.07	1500.07
0	149085	1840.07	1400.07
0	149086	1840.07	1300.07
0	149268	1841.07	1600.07
0	149269	1841.07	1500.07
0	149270	1841.07	1400.07
0	149271	1841.07	1300.07
0	149453	1842.07	1600.07
0	149454	1842.07	1500.07
0	149455	1842.07	1400.07
0	149456	1842.07	1300.07
0	149638	1843.07	1600.07
0	149639	1843.07	1500.07
0	149640	1843.07	1400.07
0	149641	1843.07	1300.07
0	149823	1844.07	1600.07
0	149824	1844.07	1500.07
0	149825	1844.07	1400.07
0	149826	1844.07	1300.07
0	150008	1845.07	1600.07
0	150009	1845.07	1500.07
0	150010	1845.07	1400.07
0	150011	1845.07	1300.07
0	150193	1846.07	1600.07
0	150194	1846.07	1500.07
0	150195	1846.07	1400.07
0	150196	1846.07	1300.07
0	150378	1847.07	1600.07
0	150379	1847.07	1500.07
0	150380	1847.07	1400.07
0	150381	1847.07	1300.07
0	150563	1848.07	1600.07
0	150564	1848.07	1500.07
0	150565	1848.07	1400.07
0	150566	1848.07	1300.07
0	150748	1849.07	1600.07
0	150749	1849.07	1500.07
0	150750	1849.07	1400.07
0	150751	1849.07	1300.07
0	150933	1850.07	1600.07
0	150934	1850.07	1500.07
0	150935	1850.07	1400.07
0	150936	1850.07	1300.07
0	151118	1851.07	1600.07
0	151119	1851.07	1500.07
0	151120	1851.07	1400.07
0	151121	1851.07	1300.07
0	151303	1852.07	1600.07
0	151304	1852.07	1500.07
0	151305	1852.07	1400.07
0	151306	1852.07	1300.07
0	151488	1853.07	1600.07
0	151489	1853.07	1500.07
0	151490	1853.07	1400.07
0	151491	1853.07	1300.07
0	151673	1854.07	1600.07
0	151674	1854.07	1500.07
0	151675	1854.07	1400.07
0	151676	1854.07	1300.07
0	151858	1855.07	1600.07
0	151859	1855.07	1500.07
0	151860	1855.07	1400.07
0	151861	1855.07	1300.07
0	152043	1856.07	1600.07
0	152044	1856.07	1500.07
0	152045	1856.07	1400.07
0	152046	1856.07	1300.07
0	152228	1857.07	1600.07
0	152229	1857.07	1500.07
0	152230	1857.07	1400.07
0	152231	1857.07	1300.07
0	154162	1858.07	1858.07
0	154163	1858.07	1857.07
0	154164	1858.07	1856.07
0	154165	1858.07	1855.07
0	154166	1858.07	1854.07
0	154167	1858.07	1853.07
0	154168	1858.07	1852.07
0	154169	1858.07	1851.07
0	154170	1858.07	1850.07
0	154171	1858.07	1849.07
0	154172	1858.07	1848.07
0	154173	1858.07	1847.07
0	154174	1858.07	1846.07
0	154175	1858.07	1845.07
0	154176	1858.07	1844.07
0	154177	1858.07	1843.07
0	154178	1858.07	1842.07
0	154179	1858.07	1841.07
0	154180	1858.07	1840.07
0	154181	1858.07	1839.07
0	154182	1858.07	1838.07
0	154183	1858.07	1837.07
0	154184	1858.07	1836.07
0	154185	1858.07	1835.07
0	154186	1858.07	1834.07
0	154187	1858.07	1833.07
0	154188	1858.07	1832.07
0	154189	1858.07	1831.07
0	154190	1858.07	1830.07
0	154191	1858.07	1829.07
0	154192	1858.07	1828.07
0	154193	1858.07	1827.07
0	154194	1858.07	1826.07
0	154195	1858.07	1825.07
0	154196	1858.07	1824.07
0	154197	1858.07	1823.07
0	154198	1858.07	1822.07
0	154199	1858.07	1821.07
0	154200	1858.07	1820.07
0	154201	1858.07	1819.07
0	154202	1858.07	1818.07
0	154203	1858.07	1817.07
0	154204	1858.07	1816.07
0	154205	1858.07	1815.07
0	154206	1858.07	1814.07
0	154207	1858.07	1813.07
0	154208	1858.07	1812.07
0	154209	1858.07	1811.07
0	154210	1858.07	1810.07
0	154211	1858.07	1809.07
0	154212	1858.07	1808.07
0	154213	1858.07	1807.07
0	154214	1858.07	1806.07
0	154215	1858.07	1805.07
0	154216	1858.07	1804.07
0	154217	1858.07	1803.07
0	154218	1858.07	1802.07
0	154219	1858.07	1801.07
0	154220	1858.07	1800.07
0	154221	1858.07	1799.07
0	154222	1858.07	1798.07
0	154223	1858.07	1797.07
0	154224	1858.07	1796.07
0	154225	1858.07	1795.07
0	154226	1858.07	1794.07
0	154227	1858.07	1793.07
0	154228	1858.07	1792.07
0	154229	1858.07	1791.07
0	154230	1858.07	1790.07
0	154231	1858.07	1789.07
0	154232	1858.07	1788.07
0	154233	1858.07	1787.07
0	154234	1858.07	1786.07
0	154235	1858.07	1785.07
0	154236	1858.07	1784.07
0	154237	1858.07	1783.07
0	154238	1858.07	1782.07
0	154239	1858.07	1781.07
0	154240	1858.07	1780.07
0	154241	1858.07	1779.07
0	154242	1858.07	1778.07
0	154243	1858.07	1777.07
0	154244	1858.07	1776.07
0	154245	1858.07	1775.07
0	154246	1858.07	1774.07
0	154247	1858.07	1773.07
0	154248	1858.07	1772.07
0	154249	1858.07	1771.07
0	154250	1858.07	1770.07
0	154251	1858.07	1769.07
0	154252	1858.07	1768.07
0	154253	1858.07	1767.07
0	154254	1858.07	1766.07
0	154255	1858.07	1765.07
0	154256	1858.07	1764.07
0	154257	1858.07	1763.07
0	154258	1858.07	1762.07
0	154259	1858.07	1761.07
0	154260	1858.07	1760.07
0	154261	1858.07	1759.07
0	154262	1858.07	1758.07
0	154263	1858.07	1757.07
0	154264	1858.07	1756.07
0	154265	1858.07	1755.07
0	154266	1858.07	1754.07
0	154267	1858.07	1753.07
0	154268	1858.07	1752.07
0	154269	1858.07	1751.07
0	154270	1858.07	1750.07
0	154271	1858.07	1749.07
0	154272	1858.07	1748.07
0	154273	1858.07	1747.07
0	154274	1858.07	1746.07
0	154275	1858.07	1745.07
0	154276	1858.07	1744.07
0	154277	1858.07	1743.07
0	154278	1858.07	1742.07
0	154279	1858.07	1741.07
0	154280	1858.07	1740.07
0	154281	1858.07	1739.07
0	154282	1858.07	1738.07
0	154283	1858.07	1737.07
0	154284	1858.07	1736.07
0	154285	1858.07	1735.07
0	154286	1858.07	1734.07
0	154287	1858.07	1733.07
0	154288	1858.07	1732.07
0	154289	1858.07	1731.07
0	154290	1858.07	1730.07
0	154291	1858.07	1729.07
0	154292	1858.07	1728.07
0	154293	1858.07	1727.07
0	154294	1858.07	1726.07
0	154295	1858.07	1725.07
0	154296	1858.07	1724.07
0	154297	1858.07	1723.07
0	154298	1858.07	1722.07
0	154299	1858.07	1721.07
0	154300	1858.07	1720.07
0	154301	1858.07	1719.07
0	154302	1858.07	1718.07
0	154303	1858.07	1717.07
0	154304	1858.07	1716.07
0	154305	1858.07	1715.07
0	154306	1858.07	1714.07
0	154307	1858.07	1713.07
0	154308	1858.07	1712.07
0	154309	1858.07	1711.07
0	154310	1858.07	1710.07
0	154311	1858.07	1709.07
0	154312	1858.07	1708.07
0	154313	1858.07	1707.07
0	154314	1858.07	1706.07
0	154315	1858.07	1705.07
0	154316	1858.07	1704.07
0	154317	1858.07	1703.07
0	154318	1858.07	1702.07
0	154319	1858.07	1701.07
0	154320	1858.07	1700.07
0	154321	1858.07	1600.07
0	154322	1858.07	1500.07
0	154323	1858.07	1400.07
0	154324	1858.07	1300.07
0	156743	1859.07	1700.07
0	156744	1859.07	1600.07
0	156745	1859.07	1500.07
0	156746	1859.07	1400.07
0	156747	1859.07	1300.07
0	156954	1860.07	1700.07
0	156955	1860.07	1600.07
0	156956	1860.07	1500.07
0	156957	1860.07	1400.07
0	156958	1860.07	1300.07
0	157165	1861.07	1700.07
0	157166	1861.07	1600.07
0	157167	1861.07	1500.07
0	157168	1861.07	1400.07
0	157169	1861.07	1300.07
0	157376	1862.07	1700.07
0	157377	1862.07	1600.07
0	157378	1862.07	1500.07
0	157379	1862.07	1400.07
0	157380	1862.07	1300.07
0	157587	1863.07	1700.07
0	157588	1863.07	1600.07
0	157589	1863.07	1500.07
0	157590	1863.07	1400.07
0	157591	1863.07	1300.07
0	157798	1864.07	1700.07
0	157799	1864.07	1600.07
0	157800	1864.07	1500.07
0	157801	1864.07	1400.07
0	157802	1864.07	1300.07
0	158009	1865.07	1700.07
0	158010	1865.07	1600.07
0	158011	1865.07	1500.07
0	158012	1865.07	1400.07
0	158013	1865.07	1300.07
0	158220	1866.07	1700.07
0	158221	1866.07	1600.07
0	158222	1866.07	1500.07
0	158223	1866.07	1400.07
0	158224	1866.07	1300.07
0	158431	1867.07	1700.07
0	158432	1867.07	1600.07
0	158433	1867.07	1500.07
0	158434	1867.07	1400.07
0	158435	1867.07	1300.07
0	158642	1868.07	1700.07
0	158643	1868.07	1600.07
0	158644	1868.07	1500.07
0	158645	1868.07	1400.07
0	158646	1868.07	1300.07
0	158853	1869.07	1700.07
0	158854	1869.07	1600.07
0	158855	1869.07	1500.07
0	158856	1869.07	1400.07
0	158857	1869.07	1300.07
0	159064	1870.07	1700.07
0	159065	1870.07	1600.07
0	159066	1870.07	1500.07
0	159067	1870.07	1400.07
0	159068	1870.07	1300.07
0	159275	1871.07	1700.07
0	159276	1871.07	1600.07
0	159277	1871.07	1500.07
0	159278	1871.07	1400.07
0	159279	1871.07	1300.07
0	159486	1872.07	1700.07
0	159487	1872.07	1600.07
0	159488	1872.07	1500.07
0	159489	1872.07	1400.07
0	159490	1872.07	1300.07
0	159697	1873.07	1700.07
0	159698	1873.07	1600.07
0	159699	1873.07	1500.07
0	159700	1873.07	1400.07
0	159701	1873.07	1300.07
0	159908	1874.07	1700.07
0	159909	1874.07	1600.07
0	159910	1874.07	1500.07
0	159911	1874.07	1400.07
0	159912	1874.07	1300.07
0	160119	1875.07	1700.07
0	160120	1875.07	1600.07
0	160121	1875.07	1500.07
0	160122	1875.07	1400.07
0	160123	1875.07	1300.07
0	160330	1876.07	1700.07
0	160331	1876.07	1600.07
0	160332	1876.07	1500.07
0	160333	1876.07	1400.07
0	160334	1876.07	1300.07
0	160541	1877.07	1700.07
0	160542	1877.07	1600.07
0	160543	1877.07	1500.07
0	160544	1877.07	1400.07
0	160545	1877.07	1300.07
0	160752	1878.07	1700.07
0	160753	1878.07	1600.07
0	160754	1878.07	1500.07
0	160755	1878.07	1400.07
0	160756	1878.07	1300.07
0	160963	1879.07	1700.07
0	160964	1879.07	1600.07
0	160965	1879.07	1500.07
0	160966	1879.07	1400.07
0	160967	1879.07	1300.07
0	161174	1880.07	1700.07
0	161175	1880.07	1600.07
0	161176	1880.07	1500.07
0	161177	1880.07	1400.07
0	161178	1880.07	1300.07
0	161385	1881.07	1700.07
0	161386	1881.07	1600.07
0	161387	1881.07	1500.07
0	161388	1881.07	1400.07
0	161389	1881.07	1300.07
0	161596	1882.07	1700.07
0	161597	1882.07	1600.07
0	161598	1882.07	1500.07
0	161599	1882.07	1400.07
0	161600	1882.07	1300.07
0	161807	1883.07	1700.07
0	161808	1883.07	1600.07
0	161809	1883.07	1500.07
0	161810	1883.07	1400.07
0	161811	1883.07	1300.07
0	162018	1884.07	1700.07
0	162019	1884.07	1600.07
0	162020	1884.07	1500.07
0	162021	1884.07	1400.07
0	162022	1884.07	1300.07
0	162229	1885.07	1700.07
0	162230	1885.07	1600.07
0	162231	1885.07	1500.07
0	162232	1885.07	1400.07
0	162233	1885.07	1300.07
0	162440	1886.07	1700.07
0	162441	1886.07	1600.07
0	162442	1886.07	1500.07
0	162443	1886.07	1400.07
0	162444	1886.07	1300.07
0	162651	1887.07	1700.07
0	162652	1887.07	1600.07
0	162653	1887.07	1500.07
0	162654	1887.07	1400.07
0	162655	1887.07	1300.07
0	162862	1888.07	1700.07
0	162863	1888.07	1600.07
0	162864	1888.07	1500.07
0	162865	1888.07	1400.07
0	162866	1888.07	1300.07
0	163073	1889.07	1700.07
0	163074	1889.07	1600.07
0	163075	1889.07	1500.07
0	163076	1889.07	1400.07
0	163077	1889.07	1300.07
0	163284	1890.07	1700.07
0	163285	1890.07	1600.07
0	163286	1890.07	1500.07
0	163287	1890.07	1400.07
0	163288	1890.07	1300.07
0	163495	1891.07	1700.07
0	163496	1891.07	1600.07
0	163497	1891.07	1500.07
0	163498	1891.07	1400.07
0	163499	1891.07	1300.07
0	163706	1892.07	1700.07
0	163707	1892.07	1600.07
0	163708	1892.07	1500.07
0	163709	1892.07	1400.07
0	163710	1892.07	1300.07
0	163917	1893.07	1700.07
0	163918	1893.07	1600.07
0	163919	1893.07	1500.07
0	163920	1893.07	1400.07
0	163921	1893.07	1300.07
0	164128	1894.07	1700.07
0	164129	1894.07	1600.07
0	164130	1894.07	1500.07
0	164131	1894.07	1400.07
0	164132	1894.07	1300.07
0	164339	1895.07	1700.07
0	164340	1895.07	1600.07
0	164341	1895.07	1500.07
0	164342	1895.07	1400.07
0	164343	1895.07	1300.07
0	164550	1896.07	1700.07
0	164551	1896.07	1600.07
0	164552	1896.07	1500.07
0	164553	1896.07	1400.07
0	164554	1896.07	1300.07
0	164761	1897.07	1700.07
0	164762	1897.07	1600.07
0	164763	1897.07	1500.07
0	164764	1897.07	1400.07
0	164765	1897.07	1300.07
0	164972	1898.07	1700.07
0	164973	1898.07	1600.07
0	164974	1898.07	1500.07
0	164975	1898.07	1400.07
0	164976	1898.07	1300.07
0	165183	1899.07	1700.07
0	165184	1899.07	1600.07
0	165185	1899.07	1500.07
0	165186	1899.07	1400.07
0	165187	1899.07	1300.07
0	165394	1900.07	1700.07
0	165395	1900.07	1600.07
0	165396	1900.07	1500.07
0	165397	1900.07	1400.07
0	165398	1900.07	1300.07
0	165605	1901.07	1700.07
0	165606	1901.07	1600.07
0	165607	1901.07	1500.07
0	165608	1901.07	1400.07
0	165609	1901.07	1300.07
0	165816	1902.07	1700.07
0	165817	1902.07	1600.07
0	165818	1902.07	1500.07
0	165819	1902.07	1400.07
0	165820	1902.07	1300.07
0	166027	1903.07	1700.07
0	166028	1903.07	1600.07
0	166029	1903.07	1500.07
0	166030	1903.07	1400.07
0	166031	1903.07	1300.07
0	166238	1904.07	1700.07
0	166239	1904.07	1600.07
0	166240	1904.07	1500.07
0	166241	1904.07	1400.07
0	166242	1904.07	1300.07
0	166449	1905.07	1700.07
0	166450	1905.07	1600.07
0	166451	1905.07	1500.07
0	166452	1905.07	1400.07
0	166453	1905.07	1300.07
0	166660	1906.07	1700.07
0	166661	1906.07	1600.07
0	166662	1906.07	1500.07
0	166663	1906.07	1400.07
0	166664	1906.07	1300.07
0	166871	1907.07	1700.07
0	166872	1907.07	1600.07
0	166873	1907.07	1500.07
0	166874	1907.07	1400.07
0	166875	1907.07	1300.07
0	167082	1908.07	1700.07
0	167083	1908.07	1600.07
0	167084	1908.07	1500.07
0	167085	1908.07	1400.07
0	167086	1908.07	1300.07
0	167293	1909.07	1700.07
0	167294	1909.07	1600.07
0	167295	1909.07	1500.07
0	167296	1909.07	1400.07
0	167297	1909.07	1300.07
0	167504	1910.07	1700.07
0	167505	1910.07	1600.07
0	167506	1910.07	1500.07
0	167507	1910.07	1400.07
0	167508	1910.07	1300.07
0	167715	1911.07	1700.07
0	167716	1911.07	1600.07
0	167717	1911.07	1500.07
0	167718	1911.07	1400.07
0	167719	1911.07	1300.07
0	167926	1912.07	1700.07
0	167927	1912.07	1600.07
0	167928	1912.07	1500.07
0	167929	1912.07	1400.07
0	167930	1912.07	1300.07
0	168137	1913.07	1700.07
0	168138	1913.07	1600.07
0	168139	1913.07	1500.07
0	168140	1913.07	1400.07
0	168141	1913.07	1300.07
0	168348	1914.07	1700.07
0	168349	1914.07	1600.07
0	168350	1914.07	1500.07
0	168351	1914.07	1400.07
0	168352	1914.07	1300.07
0	168559	1915.07	1700.07
0	168560	1915.07	1600.07
0	168561	1915.07	1500.07
0	168562	1915.07	1400.07
0	168563	1915.07	1300.07
0	168770	1916.07	1700.07
0	168771	1916.07	1600.07
0	168772	1916.07	1500.07
0	168773	1916.07	1400.07
0	168774	1916.07	1300.07
0	168981	1917.07	1700.07
0	168982	1917.07	1600.07
0	168983	1917.07	1500.07
0	168984	1917.07	1400.07
0	168985	1917.07	1300.07
0	169192	1918.07	1700.07
0	169193	1918.07	1600.07
0	169194	1918.07	1500.07
0	169195	1918.07	1400.07
0	169196	1918.07	1300.07
0	169403	1919.07	1700.07
0	169404	1919.07	1600.07
0	169405	1919.07	1500.07
0	169406	1919.07	1400.07
0	169407	1919.07	1300.07
0	169614	1920.07	1700.07
0	169615	1920.07	1600.07
0	169616	1920.07	1500.07
0	169617	1920.07	1400.07
0	169618	1920.07	1300.07
0	169825	1921.07	1700.07
0	169826	1921.07	1600.07
0	169827	1921.07	1500.07
0	169828	1921.07	1400.07
0	169829	1921.07	1300.07
0	170036	1922.07	1700.07
0	170037	1922.07	1600.07
0	170038	1922.07	1500.07
0	170039	1922.07	1400.07
0	170040	1922.07	1300.07
0	170247	1923.07	1700.07
0	170248	1923.07	1600.07
0	170249	1923.07	1500.07
0	170250	1923.07	1400.07
0	170251	1923.07	1300.07
0	170458	1924.07	1700.07
0	170459	1924.07	1600.07
0	170460	1924.07	1500.07
0	170461	1924.07	1400.07
0	170462	1924.07	1300.07
0	170669	1925.07	1700.07
0	170670	1925.07	1600.07
0	170671	1925.07	1500.07
0	170672	1925.07	1400.07
0	170673	1925.07	1300.07
0	170880	1926.07	1700.07
0	170881	1926.07	1600.07
0	170882	1926.07	1500.07
0	170883	1926.07	1400.07
0	170884	1926.07	1300.07
0	171091	1927.07	1700.07
0	171092	1927.07	1600.07
0	171093	1927.07	1500.07
0	171094	1927.07	1400.07
0	171095	1927.07	1300.07
0	171302	1928.07	1700.07
0	171303	1928.07	1600.07
0	171304	1928.07	1500.07
0	171305	1928.07	1400.07
0	171306	1928.07	1300.07
0	171513	1929.07	1700.07
0	171514	1929.07	1600.07
0	171515	1929.07	1500.07
0	171516	1929.07	1400.07
0	171517	1929.07	1300.07
0	171724	1930.07	1700.07
0	171725	1930.07	1600.07
0	171726	1930.07	1500.07
0	171727	1930.07	1400.07
0	171728	1930.07	1300.07
0	171935	1931.07	1700.07
0	171936	1931.07	1600.07
0	171937	1931.07	1500.07
0	171938	1931.07	1400.07
0	171939	1931.07	1300.07
0	172146	1932.07	1700.07
0	172147	1932.07	1600.07
0	172148	1932.07	1500.07
0	172149	1932.07	1400.07
0	172150	1932.07	1300.07
0	172357	1933.07	1700.07
0	172358	1933.07	1600.07
0	172359	1933.07	1500.07
0	172360	1933.07	1400.07
0	172361	1933.07	1300.07
0	172568	1934.07	1700.07
0	172569	1934.07	1600.07
0	172570	1934.07	1500.07
0	172571	1934.07	1400.07
0	172572	1934.07	1300.07
0	172779	1935.07	1700.07
0	172780	1935.07	1600.07
0	172781	1935.07	1500.07
0	172782	1935.07	1400.07
0	172783	1935.07	1300.07
0	172990	1936.07	1700.07
0	172991	1936.07	1600.07
0	172992	1936.07	1500.07
0	172993	1936.07	1400.07
0	172994	1936.07	1300.07
0	173201	1937.07	1700.07
0	173202	1937.07	1600.07
0	173203	1937.07	1500.07
0	173204	1937.07	1400.07
0	173205	1937.07	1300.07
0	173412	1938.07	1700.07
0	173413	1938.07	1600.07
0	173414	1938.07	1500.07
0	173415	1938.07	1400.07
0	173416	1938.07	1300.07
0	173623	1939.07	1700.07
0	173624	1939.07	1600.07
0	173625	1939.07	1500.07
0	173626	1939.07	1400.07
0	173627	1939.07	1300.07
0	173834	1940.07	1700.07
0	173835	1940.07	1600.07
0	173836	1940.07	1500.07
0	173837	1940.07	1400.07
0	173838	1940.07	1300.07
0	174045	1941.07	1700.07
0	174046	1941.07	1600.07
0	174047	1941.07	1500.07
0	174048	1941.07	1400.07
0	174049	1941.07	1300.07
0	174256	1942.07	1700.07
0	174257	1942.07	1600.07
0	174258	1942.07	1500.07
0	174259	1942.07	1400.07
0	174260	1942.07	1300.07
0	174467	1943.07	1700.07
0	174468	1943.07	1600.07
0	174469	1943.07	1500.07
0	174470	1943.07	1400.07
0	174471	1943.07	1300.07
0	174678	1944.07	1700.07
0	174679	1944.07	1600.07
0	174680	1944.07	1500.07
0	174681	1944.07	1400.07
0	174682	1944.07	1300.07
0	174889	1945.07	1700.07
0	174890	1945.07	1600.07
0	174891	1945.07	1500.07
0	174892	1945.07	1400.07
0	174893	1945.07	1300.07
0	175100	1946.07	1700.07
0	175101	1946.07	1600.07
0	175102	1946.07	1500.07
0	175103	1946.07	1400.07
0	175104	1946.07	1300.07
0	175311	1947.07	1700.07
0	175312	1947.07	1600.07
0	175313	1947.07	1500.07
0	175314	1947.07	1400.07
0	175315	1947.07	1300.07
0	175522	1948.07	1700.07
0	175523	1948.07	1600.07
0	175524	1948.07	1500.07
0	175525	1948.07	1400.07
0	175526	1948.07	1300.07
0	175733	1949.07	1700.07
0	175734	1949.07	1600.07
0	175735	1949.07	1500.07
0	175736	1949.07	1400.07
0	175737	1949.07	1300.07
0	175944	1950.07	1700.07
0	175945	1950.07	1600.07
0	175946	1950.07	1500.07
0	175947	1950.07	1400.07
0	175948	1950.07	1300.07
0	176155	1951.07	1700.07
0	176156	1951.07	1600.07
0	176157	1951.07	1500.07
0	176158	1951.07	1400.07
0	176159	1951.07	1300.07
0	176366	1952.07	1700.07
0	176367	1952.07	1600.07
0	176368	1952.07	1500.07
0	176369	1952.07	1400.07
0	176370	1952.07	1300.07
0	176577	1953.07	1700.07
0	176578	1953.07	1600.07
0	176579	1953.07	1500.07
0	176580	1953.07	1400.07
0	176581	1953.07	1300.07
0	176734	1954.07	1700.07
0	176735	1954.07	1600.07
0	176736	1954.07	1500.07
0	176737	1954.07	1400.07
0	176738	1954.07	1300.07
0	176891	1955.07	1700.07
0	176892	1955.07	1600.07
0	176893	1955.07	1500.07
0	176894	1955.07	1400.07
0	176895	1955.07	1300.07
0	177048	1956.07	1700.07
0	177049	1956.07	1600.07
0	177050	1956.07	1500.07
0	177051	1956.07	1400.07
0	177052	1956.07	1300.07
0	177205	1957.07	1700.07
0	177206	1957.07	1600.07
0	177207	1957.07	1500.07
0	177208	1957.07	1400.07
0	177209	1957.07	1300.07
0	179111	1958.07	1958.07
0	179112	1958.07	1957.07
0	179113	1958.07	1956.07
0	179114	1958.07	1955.07
0	179115	1958.07	1954.07
0	179116	1958.07	1953.07
0	179117	1958.07	1952.07
0	179118	1958.07	1951.07
0	179119	1958.07	1950.07
0	179120	1958.07	1949.07
0	179121	1958.07	1948.07
0	179122	1958.07	1947.07
0	179123	1958.07	1946.07
0	179124	1958.07	1945.07
0	179125	1958.07	1944.07
0	179126	1958.07	1943.07
0	179127	1958.07	1942.07
0	179128	1958.07	1941.07
0	179129	1958.07	1940.07
0	179130	1958.07	1939.07
0	179131	1958.07	1938.07
0	179132	1958.07	1937.07
0	179133	1958.07	1936.07
0	179134	1958.07	1935.07
0	179135	1958.07	1934.07
0	179136	1958.07	1933.07
0	179137	1958.07	1932.07
0	179138	1958.07	1931.07
0	179139	1958.07	1930.07
0	179140	1958.07	1929.07
0	179141	1958.07	1928.07
0	179142	1958.07	1927.07
0	179143	1958.07	1926.07
0	179144	1958.07	1925.07
0	179145	1958.07	1924.07
0	179146	1958.07	1923.07
0	179147	1958.07	1922.07
0	179148	1958.07	1921.07
0	179149	1958.07	1920.07
0	179150	1958.07	1919.07
0	179151	1958.07	1918.07
0	179152	1958.07	1917.07
0	179153	1958.07	1916.07
0	179154	1958.07	1915.07
0	179155	1958.07	1914.07
0	179156	1958.07	1913.07
0	179157	1958.07	1912.07
0	179158	1958.07	1911.07
0	179159	1958.07	1910.07
0	179160	1958.07	1909.07
0	179161	1958.07	1908.07
0	179162	1958.07	1907.07
0	179163	1958.07	1906.07
0	179164	1958.07	1905.07
0	179165	1958.07	1904.07
0	179166	1958.07	1903.07
0	179167	1958.07	1902.07
0	179168	1958.07	1901.07
0	179169	1958.07	1900.07
0	179170	1958.07	1899.07
0	179171	1958.07	1898.07
0	179172	1958.07	1897.07
0	179173	1958.07	1896.07
0	179174	1958.07	1895.07
0	179175	1958.07	1894.07
0	179176	1958.07	1893.07
0	179177	1958.07	1892.07
0	179178	1958.07	1891.07
0	179179	1958.07	1890.07
0	179180	1958.07	1889.07
0	179181	1958.07	1888.07
0	179182	1958.07	1887.07
0	179183	1958.07	1886.07
0	179184	1958.07	1885.07
0	179185	1958.07	1884.07
0	179186	1958.07	1883.07
0	179187	1958.07	1882.07
0	179188	1958.07	1881.07
0	179189	1958.07	1880.07
0	179190	1958.07	1879.07
0	179191	1958.07	1878.07
0	179192	1958.07	1877.07
0	179193	1958.07	1876.07
0	179194	1958.07	1875.07
0	179195	1958.07	1874.07
0	179196	1958.07	1873.07
0	179197	1958.07	1872.07
0	179198	1958.07	1871.07
0	179199	1958.07	1870.07
0	179200	1958.07	1869.07
0	179201	1958.07	1868.07
0	179202	1958.07	1867.07
0	179203	1958.07	1866.07
0	179204	1958.07	1865.07
0	179205	1958.07	1864.07
0	179206	1958.07	1863.07
0	179207	1958.07	1862.07
0	179208	1958.07	1861.07
0	179209	1958.07	1860.07
0	179210	1958.07	1859.07
0	179211	1958.07	1858.07
0	179212	1958.07	1857.07
0	179213	1958.07	1856.07
0	179214	1958.07	1855.07
0	179215	1958.07	1854.07
0	179216	1958.07	1853.07
0	179217	1958.07	1852.07
0	179218	1958.07	1851.07
0	179219	1958.07	1850.07
0	179220	1958.07	1849.07
0	179221	1958.07	1848.07
0	179222	1958.07	1847.07
0	179223	1958.07	1846.07
0	179224	1958.07	1845.07
0	179225	1958.07	1844.07
0	179226	1958.07	1843.07
0	179227	1958.07	1842.07
0	179228	1958.07	1841.07
0	179229	1958.07	1840.07
0	179230	1958.07	1839.07
0	179231	1958.07	1838.07
0	179232	1958.07	1837.07
0	179233	1958.07	1836.07
0	179234	1958.07	1835.07
0	179235	1958.07	1834.07
0	179236	1958.07	1833.07
0	179237	1958.07	1832.07
0	179238	1958.07	1831.07
0	179239	1958.07	1830.07
0	179240	1958.07	1829.07
0	179241	1958.07	1828.07
0	179242	1958.07	1827.07
0	179243	1958.07	1826.07
0	179244	1958.07	1825.07
0	179245	1958.07	1824.07
0	179246	1958.07	1823.07
0	179247	1958.07	1822.07
0	179248	1958.07	1821.07
0	179249	1958.07	1820.07
0	179250	1958.07	1819.07
0	179251	1958.07	1818.07
0	179252	1958.07	1817.07
0	179253	1958.07	1816.07
0	179254	1958.07	1815.07
0	179255	1958.07	1814.07
0	179256	1958.07	1813.07
0	179257	1958.07	1812.07
0	179258	1958.07	1811.07
0	179259	1958.07	1810.07
0	179260	1958.07	1809.07
0	179261	1958.07	1808.07
0	179262	1958.07	1807.07
0	179263	1958.07	1806.07
0	179264	1958.07	1805.07
0	179265	1958.07	1804.07
0	179266	1958.07	1803.07
0	179267	1958.07	1802.07
0	179268	1958.07	1801.07
0	179269	1958.07	1800.07
0	179270	1958.07	1700.07
0	179271	1958.07	1600.07
0	179272	1958.07	1500.07
0	179273	1958.07	1400.07
0	179274	1958.07	1300.07
0	181187	1959.07	1800.07
0	181188	1959.07	1700.07
0	181189	1959.07	1600.07
0	181190	1959.07	1500.07
0	181191	1959.07	1400.07
0	181192	1959.07	1300.07
0	181367	1960.07	1800.07
0	181368	1960.07	1700.07
0	181369	1960.07	1600.07
0	181370	1960.07	1500.07
0	181371	1960.07	1400.07
0	181372	1960.07	1300.07
0	181547	1961.07	1800.07
0	181548	1961.07	1700.07
0	181549	1961.07	1600.07
0	181550	1961.07	1500.07
0	181551	1961.07	1400.07
0	181552	1961.07	1300.07
0	181727	1962.07	1800.07
0	181728	1962.07	1700.07
0	181729	1962.07	1600.07
0	181730	1962.07	1500.07
0	181731	1962.07	1400.07
0	181732	1962.07	1300.07
0	181907	1963.07	1800.07
0	181908	1963.07	1700.07
0	181909	1963.07	1600.07
0	181910	1963.07	1500.07
0	181911	1963.07	1400.07
0	181912	1963.07	1300.07
0	182087	1964.07	1800.07
0	182088	1964.07	1700.07
0	182089	1964.07	1600.07
0	182090	1964.07	1500.07
0	182091	1964.07	1400.07
0	182092	1964.07	1300.07
0	182267	1965.07	1800.07
0	182268	1965.07	1700.07
0	182269	1965.07	1600.07
0	182270	1965.07	1500.07
0	182271	1965.07	1400.07
0	182272	1965.07	1300.07
0	182447	1966.07	1800.07
0	182448	1966.07	1700.07
0	182449	1966.07	1600.07
0	182450	1966.07	1500.07
0	182451	1966.07	1400.07
0	182452	1966.07	1300.07
0	182627	1967.07	1800.07
0	182628	1967.07	1700.07
0	182629	1967.07	1600.07
0	182630	1967.07	1500.07
0	182631	1967.07	1400.07
0	182632	1967.07	1300.07
0	182807	1968.07	1800.07
0	182808	1968.07	1700.07
0	182809	1968.07	1600.07
0	182810	1968.07	1500.07
0	182811	1968.07	1400.07
0	182812	1968.07	1300.07
0	182987	1969.07	1800.07
0	182988	1969.07	1700.07
0	182989	1969.07	1600.07
0	182990	1969.07	1500.07
0	182991	1969.07	1400.07
0	182992	1969.07	1300.07
0	183167	1970.07	1800.07
0	183168	1970.07	1700.07
0	183169	1970.07	1600.07
0	183170	1970.07	1500.07
0	183171	1970.07	1400.07
0	183172	1970.07	1300.07
0	183347	1971.07	1800.07
0	183348	1971.07	1700.07
0	183349	1971.07	1600.07
0	183350	1971.07	1500.07
0	183351	1971.07	1400.07
0	183352	1971.07	1300.07
0	183527	1972.07	1800.07
0	183528	1972.07	1700.07
0	183529	1972.07	1600.07
0	183530	1972.07	1500.07
0	183531	1972.07	1400.07
0	183532	1972.07	1300.07
0	183707	1973.07	1800.07
0	183708	1973.07	1700.07
0	183709	1973.07	1600.07
0	183710	1973.07	1500.07
0	183711	1973.07	1400.07
0	183712	1973.07	1300.07
0	183887	1974.07	1800.07
0	183888	1974.07	1700.07
0	183889	1974.07	1600.07
0	183890	1974.07	1500.07
0	183891	1974.07	1400.07
0	183892	1974.07	1300.07
0	184067	1975.07	1800.07
0	184068	1975.07	1700.07
0	184069	1975.07	1600.07
0	184070	1975.07	1500.07
0	184071	1975.07	1400.07
0	184072	1975.07	1300.07
0	184247	1976.07	1800.07
0	184248	1976.07	1700.07
0	184249	1976.07	1600.07
0	184250	1976.07	1500.07
0	184251	1976.07	1400.07
0	184252	1976.07	1300.07
0	184427	1977.07	1800.07
0	184428	1977.07	1700.07
0	184429	1977.07	1600.07
0	184430	1977.07	1500.07
0	184431	1977.07	1400.07
0	184432	1977.07	1300.07
0	184607	1978.07	1800.07
0	184608	1978.07	1700.07
0	184609	1978.07	1600.07
0	184610	1978.07	1500.07
0	184611	1978.07	1400.07
0	184612	1978.07	1300.07
0	184787	1979.07	1800.07
0	184788	1979.07	1700.07
0	184789	1979.07	1600.07
0	184790	1979.07	1500.07
0	184791	1979.07	1400.07
0	184792	1979.07	1300.07
0	184967	1980.07	1800.07
0	184968	1980.07	1700.07
0	184969	1980.07	1600.07
0	184970	1980.07	1500.07
0	184971	1980.07	1400.07
0	184972	1980.07	1300.07
0	185147	1981.07	1800.07
0	185148	1981.07	1700.07
0	185149	1981.07	1600.07
0	185150	1981.07	1500.07
0	185151	1981.07	1400.07
0	185152	1981.07	1300.07
0	185327	1982.07	1800.07
0	185328	1982.07	1700.07
0	185329	1982.07	1600.07
0	185330	1982.07	1500.07
0	185331	1982.07	1400.07
0	185332	1982.07	1300.07
0	185507	1983.07	1800.07
0	185508	1983.07	1700.07
0	185509	1983.07	1600.07
0	185510	1983.07	1500.07
0	185511	1983.07	1400.07
0	185512	1983.07	1300.07
0	185687	1984.07	1800.07
0	185688	1984.07	1700.07
0	185689	1984.07	1600.07
0	185690	1984.07	1500.07
0	185691	1984.07	1400.07
0	185692	1984.07	1300.07
0	185867	1985.07	1800.07
0	185868	1985.07	1700.07
0	185869	1985.07	1600.07
0	185870	1985.07	1500.07
0	185871	1985.07	1400.07
0	185872	1985.07	1300.07
0	186047	1986.07	1800.07
0	186048	1986.07	1700.07
0	186049	1986.07	1600.07
0	186050	1986.07	1500.07
0	186051	1986.07	1400.07
0	186052	1986.07	1300.07
0	186227	1987.07	1800.07
0	186228	1987.07	1700.07
0	186229	1987.07	1600.07
0	186230	1987.07	1500.07
0	186231	1987.07	1400.07
0	186232	1987.07	1300.07
0	186407	1988.07	1800.07
0	186408	1988.07	1700.07
0	186409	1988.07	1600.07
0	186410	1988.07	1500.07
0	186411	1988.07	1400.07
0	186412	1988.07	1300.07
0	186587	1989.07	1800.07
0	186588	1989.07	1700.07
0	186589	1989.07	1600.07
0	186590	1989.07	1500.07
0	186591	1989.07	1400.07
0	186592	1989.07	1300.07
0	186767	1990.07	1800.07
0	186768	1990.07	1700.07
0	186769	1990.07	1600.07
0	186770	1990.07	1500.07
0	186771	1990.07	1400.07
0	186772	1990.07	1300.07
0	186947	1991.07	1800.07
0	186948	1991.07	1700.07
0	186949	1991.07	1600.07
0	186950	1991.07	1500.07
0	186951	1991.07	1400.07
0	186952	1991.07	1300.07
0	187127	1992.07	1800.07
0	187128	1992.07	1700.07
0	187129	1992.07	1600.07
0	187130	1992.07	1500.07
0	187131	1992.07	1400.07
0	187132	1992.07	1300.07
0	187307	1993.07	1800.07
0	187308	1993.07	1700.07
0	187309	1993.07	1600.07
0	187310	1993.07	1500.07
0	187311	1993.07	1400.07
0	187312	1993.07	1300.07
0	187487	1994.07	1800.07
0	187488	1994.07	1700.07
0	187489	1994.07	1600.07
0	187490	1994.07	1500.07
0	187491	1994.07	1400.07
0	187492	1994.07	1300.07
0	187667	1995.07	1800.07
0	187668	1995.07	1700.07
0	187669	1995.07	1600.07
0	187670	1995.07	1500.07
0	187671	1995.07	1400.07
0	187672	1995.07	1300.07
0	187847	1996.07	1800.07
0	187848	1996.07	1700.07
0	187849	1996.07	1600.07
0	187850	1996.07	1500.07
0	187851	1996.07	1400.07
0	187852	1996.07	1300.07
0	188027	1997.07	1800.07
0	188028	1997.07	1700.07
0	188029	1997.07	1600.07
0	188030	1997.07	1500.07
0	188031	1997.07	1400.07
0	188032	1997.07	1300.07
0	188207	1998.07	1800.07
0	188208	1998.07	1700.07
0	188209	1998.07	1600.07
0	188210	1998.07	1500.07
0	188211	1998.07	1400.07
0	188212	1998.07	1300.07
0	188387	1999.07	1800.07
0	188388	1999.07	1700.07
0	188389	1999.07	1600.07
0	188390	1999.07	1500.07
0	188391	1999.07	1400.07
0	188392	1999.07	1300.07
0	188560	2000.07	1800.07
0	188561	2000.07	1700.07
0	188562	2000.07	1600.07
0	188563	2000.07	1500.07
0	188564	2000.07	1400.07
0	188565	2000.07	1300.07
0	188718	2001.07	1800.07
0	188719	2001.07	1700.07
0	188720	2001.07	1600.07
0	188721	2001.07	1500.07
0	188722	2001.07	1400.07
0	188723	2001.07	1300.07
0	188876	2002.07	1800.07
0	188877	2002.07	1700.07
0	188878	2002.07	1600.07
0	188879	2002.07	1500.07
0	188880	2002.07	1400.07
0	188881	2002.07	1300.07
0	189034	2003.07	1800.07
0	189035	2003.07	1700.07
0	189036	2003.07	1600.07
0	189037	2003.07	1500.07
0	189038	2003.07	1400.07
0	189039	2003.07	1300.07
0	189192	2004.07	1800.07
0	189193	2004.07	1700.07
0	189194	2004.07	1600.07
0	189195	2004.07	1500.07
0	189196	2004.07	1400.07
0	189197	2004.07	1300.07
0	189350	2005.07	1800.07
0	189351	2005.07	1700.07
0	189352	2005.07	1600.07
0	189353	2005.07	1500.07
0	189354	2005.07	1400.07
0	189355	2005.07	1300.07
0	189508	2006.07	1800.07
0	189509	2006.07	1700.07
0	189510	2006.07	1600.07
0	189511	2006.07	1500.07
0	189512	2006.07	1400.07
0	189513	2006.07	1300.07
0	189666	2007.07	1800.07
0	189667	2007.07	1700.07
0	189668	2007.07	1600.07
0	189669	2007.07	1500.07
0	189670	2007.07	1400.07
0	189671	2007.07	1300.07
0	189824	2008.07	1800.07
0	189825	2008.07	1700.07
0	189826	2008.07	1600.07
0	189827	2008.07	1500.07
0	189828	2008.07	1400.07
0	189829	2008.07	1300.07
0	189982	2009.07	1800.07
0	189983	2009.07	1700.07
0	189984	2009.07	1600.07
0	189985	2009.07	1500.07
0	189986	2009.07	1400.07
0	189987	2009.07	1300.07
0	190140	2010.07	1800.07
0	190141	2010.07	1700.07
0	190142	2010.07	1600.07
0	190143	2010.07	1500.07
0	190144	2010.07	1400.07
0	190145	2010.07	1300.07
0	190298	2011.07	1800.07
0	190299	2011.07	1700.07
0	190300	2011.07	1600.07
0	190301	2011.07	1500.07
0	190302	2011.07	1400.07
0	190303	2011.07	1300.07
0	190456	2012.07	1800.07
0	190457	2012.07	1700.07
0	190458	2012.07	1600.07
0	190459	2012.07	1500.07
0	190460	2012.07	1400.07
0	190461	2012.07	1300.07
0	190614	2013.07	1800.07
0	190615	2013.07	1700.07
0	190616	2013.07	1600.07
0	190617	2013.07	1500.07
0	190618	2013.07	1400.07
0	190619	2013.07	1300.07
0	190772	2014.07	1800.07
0	190773	2014.07	1700.07
0	190774	2014.07	1600.07
0	190775	2014.07	1500.07
0	190776	2014.07	1400.07
0	190777	2014.07	1300.07
0	190930	2015.07	1800.07
0	190931	2015.07	1700.07
0	190932	2015.07	1600.07
0	190933	2015.07	1500.07
0	190934	2015.07	1400.07
0	190935	2015.07	1300.07
0	191088	2016.07	1800.07
0	191089	2016.07	1700.07
0	191090	2016.07	1600.07
0	191091	2016.07	1500.07
0	191092	2016.07	1400.07
0	191093	2016.07	1300.07
0	191246	2017.07	1800.07
0	191247	2017.07	1700.07
0	191248	2017.07	1600.07
0	191249	2017.07	1500.07
0	191250	2017.07	1400.07
0	191251	2017.07	1300.07
0	191404	2018.07	1800.07
0	191405	2018.07	1700.07
0	191406	2018.07	1600.07
0	191407	2018.07	1500.07
0	191408	2018.07	1400.07
0	191409	2018.07	1300.07
0	191562	2019.07	1800.07
0	191563	2019.07	1700.07
0	191564	2019.07	1600.07
0	191565	2019.07	1500.07
0	191566	2019.07	1400.07
0	191567	2019.07	1300.07
0	191720	2020.07	1800.07
0	191721	2020.07	1700.07
0	191722	2020.07	1600.07
0	191723	2020.07	1500.07
0	191724	2020.07	1400.07
0	191725	2020.07	1300.07
0	191878	2021.07	1800.07
0	191879	2021.07	1700.07
0	191880	2021.07	1600.07
0	191881	2021.07	1500.07
0	191882	2021.07	1400.07
0	191883	2021.07	1300.07
0	192036	2022.07	1800.07
0	192037	2022.07	1700.07
0	192038	2022.07	1600.07
0	192039	2022.07	1500.07
0	192040	2022.07	1400.07
0	192041	2022.07	1300.07
0	192194	2023.07	1800.07
0	192195	2023.07	1700.07
0	192196	2023.07	1600.07
0	192197	2023.07	1500.07
0	192198	2023.07	1400.07
0	192199	2023.07	1300.07
0	192352	2024.07	1800.07
0	192353	2024.07	1700.07
0	192354	2024.07	1600.07
0	192355	2024.07	1500.07
0	192356	2024.07	1400.07
0	192357	2024.07	1300.07
0	192510	2025.07	1800.07
0	192511	2025.07	1700.07
0	192512	2025.07	1600.07
0	192513	2025.07	1500.07
0	192514	2025.07	1400.07
0	192515	2025.07	1300.07
0	192668	2026.07	1800.07
0	192669	2026.07	1700.07
0	192670	2026.07	1600.07
0	192671	2026.07	1500.07
0	192672	2026.07	1400.07
0	192673	2026.07	1300.07
0	192826	2027.07	1800.07
0	192827	2027.07	1700.07
0	192828	2027.07	1600.07
0	192829	2027.07	1500.07
0	192830	2027.07	1400.07
0	192831	2027.07	1300.07
0	192984	2028.07	1800.07
0	192985	2028.07	1700.07
0	192986	2028.07	1600.07
0	192987	2028.07	1500.07
0	192988	2028.07	1400.07
0	192989	2028.07	1300.07
0	193142	2029.07	1800.07
0	193143	2029.07	1700.07
0	193144	2029.07	1600.07
0	193145	2029.07	1500.07
0	193146	2029.07	1400.07
0	193147	2029.07	1300.07
0	193300	2030.07	1800.07
0	193301	2030.07	1700.07
0	193302	2030.07	1600.07
0	193303	2030.07	1500.07
0	193304	2030.07	1400.07
0	193305	2030.07	1300.07
0	193458	2031.07	1800.07
0	193459	2031.07	1700.07
0	193460	2031.07	1600.07
0	193461	2031.07	1500.07
0	193462	2031.07	1400.07
0	193463	2031.07	1300.07
0	193616	2032.07	1800.07
0	193617	2032.07	1700.07
0	193618	2032.07	1600.07
0	193619	2032.07	1500.07
0	193620	2032.07	1400.07
0	193621	2032.07	1300.07
0	193774	2033.07	1800.07
0	193775	2033.07	1700.07
0	193776	2033.07	1600.07
0	193777	2033.07	1500.07
0	193778	2033.07	1400.07
0	193779	2033.07	1300.07
0	193932	2034.07	1800.07
0	193933	2034.07	1700.07
0	193934	2034.07	1600.07
0	193935	2034.07	1500.07
0	193936	2034.07	1400.07
0	193937	2034.07	1300.07
0	194090	2035.07	1800.07
0	194091	2035.07	1700.07
0	194092	2035.07	1600.07
0	194093	2035.07	1500.07
0	194094	2035.07	1400.07
0	194095	2035.07	1300.07
0	194248	2036.07	1800.07
0	194249	2036.07	1700.07
0	194250	2036.07	1600.07
0	194251	2036.07	1500.07
0	194252	2036.07	1400.07
0	194253	2036.07	1300.07
0	194406	2037.07	1800.07
0	194407	2037.07	1700.07
0	194408	2037.07	1600.07
0	194409	2037.07	1500.07
0	194410	2037.07	1400.07
0	194411	2037.07	1300.07
0	194564	2038.07	1800.07
0	194565	2038.07	1700.07
0	194566	2038.07	1600.07
0	194567	2038.07	1500.07
0	194568	2038.07	1400.07
0	194569	2038.07	1300.07
0	194722	2039.07	1800.07
0	194723	2039.07	1700.07
0	194724	2039.07	1600.07
0	194725	2039.07	1500.07
0	194726	2039.07	1400.07
0	194727	2039.07	1300.07
0	194880	2040.07	1800.07
0	194881	2040.07	1700.07
0	194882	2040.07	1600.07
0	194883	2040.07	1500.07
0	194884	2040.07	1400.07
0	194885	2040.07	1300.07
0	195038	2041.07	1800.07
0	195039	2041.07	1700.07
0	195040	2041.07	1600.07
0	195041	2041.07	1500.07
0	195042	2041.07	1400.07
0	195043	2041.07	1300.07
0	195196	2042.07	1800.07
0	195197	2042.07	1700.07
0	195198	2042.07	1600.07
0	195199	2042.07	1500.07
0	195200	2042.07	1400.07
0	195201	2042.07	1300.07
0	195354	2043.07	1800.07
0	195355	2043.07	1700.07
0	195356	2043.07	1600.07
0	195357	2043.07	1500.07
0	195358	2043.07	1400.07
0	195359	2043.07	1300.07
0	195512	2044.07	1800.07
0	195513	2044.07	1700.07
0	195514	2044.07	1600.07
0	195515	2044.07	1500.07
0	195516	2044.07	1400.07
0	195517	2044.07	1300.07
0	195670	2045.07	1800.07
0	195671	2045.07	1700.07
0	195672	2045.07	1600.07
0	195673	2045.07	1500.07
0	195674	2045.07	1400.07
0	195675	2045.07	1300.07
0	195828	2046.07	1800.07
0	195829	2046.07	1700.07
0	195830	2046.07	1600.07
0	195831	2046.07	1500.07
0	195832	2046.07	1400.07
0	195833	2046.07	1300.07
0	195986	2047.07	1800.07
0	195987	2047.07	1700.07
0	195988	2047.07	1600.07
0	195989	2047.07	1500.07
0	195990	2047.07	1400.07
0	195991	2047.07	1300.07
0	196144	2048.07	1800.07
0	196145	2048.07	1700.07
0	196146	2048.07	1600.07
0	196147	2048.07	1500.07
0	196148	2048.07	1400.07
0	196149	2048.07	1300.07
0	196302	2049.07	1800.07
0	196303	2049.07	1700.07
0	196304	2049.07	1600.07
0	196305	2049.07	1500.07
0	196306	2049.07	1400.07
0	196307	2049.07	1300.07
0	196460	2050.07	1800.07
0	196461	2050.07	1700.07
0	196462	2050.07	1600.07
0	196463	2050.07	1500.07
0	196464	2050.07	1400.07
0	196465	2050.07	1300.07
0	196618	2051.07	1800.07
0	196619	2051.07	1700.07
0	196620	2051.07	1600.07
0	196621	2051.07	1500.07
0	196622	2051.07	1400.07
0	196623	2051.07	1300.07
0	196776	2052.07	1800.07
0	196777	2052.07	1700.07
0	196778	2052.07	1600.07
0	196779	2052.07	1500.07
0	196780	2052.07	1400.07
0	196781	2052.07	1300.07
0	196934	2053.07	1800.07
0	196935	2053.07	1700.07
0	196936	2053.07	1600.07
0	196937	2053.07	1500.07
0	196938	2053.07	1400.07
0	196939	2053.07	1300.07
0	197072	2054.07	1800.07
0	197073	2054.07	1700.07
0	197074	2054.07	1600.07
0	197075	2054.07	1500.07
0	197076	2054.07	1400.07
0	197077	2054.07	1300.07
0	197210	2055.07	1800.07
0	197211	2055.07	1700.07
0	197212	2055.07	1600.07
0	197213	2055.07	1500.07
0	197214	2055.07	1400.07
0	197215	2055.07	1300.07
0	197348	2056.07	1800.07
0	197349	2056.07	1700.07
0	197350	2056.07	1600.07
0	197351	2056.07	1500.07
0	197352	2056.07	1400.07
0	197353	2056.07	1300.07
0	197486	2057.07	1800.07
0	197487	2057.07	1700.07
0	197488	2057.07	1600.07
0	197489	2057.07	1500.07
0	197490	2057.07	1400.07
0	197491	2057.07	1300.07
0	199373	2058.07	2058.07
0	199374	2058.07	2057.07
0	199375	2058.07	2056.07
0	199376	2058.07	2055.07
0	199377	2058.07	2054.07
0	199378	2058.07	2053.07
0	199379	2058.07	2052.07
0	199380	2058.07	2051.07
0	199381	2058.07	2050.07
0	199382	2058.07	2049.07
0	199383	2058.07	2048.07
0	199384	2058.07	2047.07
0	199385	2058.07	2046.07
0	199386	2058.07	2045.07
0	199387	2058.07	2044.07
0	199388	2058.07	2043.07
0	199389	2058.07	2042.07
0	199390	2058.07	2041.07
0	199391	2058.07	2040.07
0	199392	2058.07	2039.07
0	199393	2058.07	2038.07
0	199394	2058.07	2037.07
0	199395	2058.07	2036.07
0	199396	2058.07	2035.07
0	199397	2058.07	2034.07
0	199398	2058.07	2033.07
0	199399	2058.07	2032.07
0	199400	2058.07	2031.07
0	199401	2058.07	2030.07
0	199402	2058.07	2029.07
0	199403	2058.07	2028.07
0	199404	2058.07	2027.07
0	199405	2058.07	2026.07
0	199406	2058.07	2025.07
0	199407	2058.07	2024.07
0	199408	2058.07	2023.07
0	199409	2058.07	2022.07
0	199410	2058.07	2021.07
0	199411	2058.07	2020.07
0	199412	2058.07	2019.07
0	199413	2058.07	2018.07
0	199414	2058.07	2017.07
0	199415	2058.07	2016.07
0	199416	2058.07	2015.07
0	199417	2058.07	2014.07
0	199418	2058.07	2013.07
0	199419	2058.07	2012.07
0	199420	2058.07	2011.07
0	199421	2058.07	2010.07
0	199422	2058.07	2009.07
0	199423	2058.07	2008.07
0	199424	2058.07	2007.07
0	199425	2058.07	2006.07
0	199426	2058.07	2005.07
0	199427	2058.07	2004.07
0	199428	2058.07	2003.07
0	199429	2058.07	2002.07
0	199430	2058.07	2001.07
0	199431	2058.07	2000.07
0	199432	2058.07	1999.07
0	199433	2058.07	1998.07
0	199434	2058.07	1997.07
0	199435	2058.07	1996.07
0	199436	2058.07	1995.07
0	199437	2058.07	1994.07
0	199438	2058.07	1993.07
[...]
0	1271468	7427.97	6717.97
0	1271469	7427.97	6617.97
0	1271470	7427.97	6517.97
0	1271471	7427.97	6417.97
0	1271472	7427.97	6317.97
0	1271473	7427.97	6217.97
0	1271474	7427.97	6117.97
0	1271475	7427.97	6017.97
0	1271476	7427.97	5917.97
0	1271477	7427.97	5817.97
0	1271478	7427.97	5717.97
0	1271479	7427.97	5617.97
0	1271480	7427.97	5517.97
0	1271481	7427.97	7216.97
0	1271482	7427.97	7116.97
0	1271483	7427.97	7016.97
0	1271484	7427.97	6916.97
0	1271485	7427.97	6816.97
0	1271486	7427.97	6716.97
0	1271487	7427.97	6616.97
0	1271488	7427.97	6516.97
0	1271489	7427.97	6416.97
0	1271490	7427.97	6316.97
0	1271491	7427.97	6216.97
0	1271492	7427.97	6116.97
0	1271493	7427.97	6016.97
0	1271494	7427.97	5916.97
0	1271495	7427.97	5816.97
0	1271496	7427.97	5716.97
0	1271497	7427.97	5616.97
0	1271498	7427.97	5516.97
0	1271499	7427.97	7215.97
0	1271500	7427.97	7115.97
0	1271501	7427.97	7015.97
0	1271502	7427.97	6915.97
0	1271503	7427.97	6815.97
0	1271504	7427.97	6715.97
0	1271505	7427.97	6615.97
0	1271506	7427.97	6515.97
0	1271507	7427.97	6415.97
0	1271508	7427.97	6315.97
0	1271509	7427.97	6215.97
0	1271510	7427.97	6115.97
0	1271511	7427.97	6015.97
0	1271512	7427.97	5915.97
0	1271513	7427.97	5815.97
0	1271514	7427.97	5715.97
0	1271515	7427.97	5615.97
0	1271516	7427.97	5515.97
0	1271517	7427.97	7214.97
0	1271518	7427.97	7114.97
0	1271519	7427.97	7014.97
0	1271520	7427.97	6914.97
0	1271521	7427.97	6814.97
0	1271522	7427.97	6714.97
0	1271523	7427.97	6614.97
0	1271524	7427.97	6514.97
0	1271525	7427.97	6414.97
0	1271526	7427.97	6314.97
0	1271527	7427.97	6214.97
0	1271528	7427.97	6114.97
0	1271529	7427.97	6014.97
0	1271530	7427.97	5914.97
0	1271531	7427.97	5814.97
0	1271532	7427.97	5714.97
0	1271533	7427.97	5614.97
0	1271534	7427.97	5514.97
0	1271535	7427.97	7213.97
0	1271536	7427.97	7113.97
0	1271537	7427.97	7013.97
0	1271538	7427.97	6913.97
0	1271539	7427.97	6813.97
0	1271540	7427.97	6713.97
0	1271541	7427.97	6613.97
0	1271542	7427.97	6513.97
0	1271543	7427.97	6413.97
0	1271544	7427.97	6313.97
0	1271545	7427.97	6213.97
0	1271546	7427.97	6113.97
0	1271547	7427.97	6013.97
0	1271548	7427.97	5913.97
0	1271549	7427.97	5813.97
0	1271550	7427.97	5713.97
0	1271551	7427.97	5613.97
0	1271552	7427.97	5513.97
0	1271553	7427.97	7212.97
0	1271554	7427.97	7112.97
0	1271555	7427.97	7012.97
0	1271556	7427.97	6912.97
0	1271557	7427.97	6812.97
0	1271558	7427.97	6712.97
0	1271559	7427.97	6612.97
0	1271560	7427.97	6512.97
0	1271561	7427.97	6412.97
0	1271562	7427.97	6312.97
0	1271563	7427.97	6212.97
0	1271564	7427.97	6112.97
0	1271565	7427.97	6012.97
0	1271566	7427.97	5912.97
0	1271567	7427.97	5812.97
0	1271568	7427.97	5712.97
0	1271569	7427.97	5612.97
0	1271570	7427.97	5512.97
0	1271571	7427.97	7211.97
0	1271572	7427.97	7111.97
0	1271573	7427.97	7011.97
0	1271574	7427.97	6911.97
0	1271575	7427.97	6811.97
0	1271576	7427.97	6711.97
0	1271577	7427.97	6611.97
0	1271578	7427.97	6511.97
0	1271579	7427.97	6411.97
0	1271580	7427.97	6311.97
0	1271581	7427.97	6211.97
0	1271582	7427.97	6111.97
0	1271583	7427.97	6011.97
0	1271584	7427.97	5911.97
0	1271585	7427.97	5811.97
0	1271586	7427.97	5711.97
0	1271587	7427.97	5611.97
0	1271588	7427.97	5511.97
0	1271589	7427.97	7210.97
0	1271590	7427.97	7110.97
0	1271591	7427.97	7010.97
0	1271592	7427.97	6910.97
0	1271593	7427.97	6810.97
0	1271594	7427.97	6710.97
0	1271595	7427.97	6610.97
0	1271596	7427.97	6510.97
0	1271597	7427.97	6410.97
0	1271598	7427.97	6310.97
0	1271599	7427.97	6210.97
0	1271600	7427.97	6110.97
0	1271601	7427.97	6010.97
0	1271602	7427.97	5910.97
0	1271603	7427.97	5810.97
0	1271604	7427.97	5710.97
0	1271605	7427.97	5610.97
0	1271606	7427.97	5510.97
0	1271607	7427.97	7209.97
0	1271608	7427.97	7109.97
0	1271609	7427.97	7009.97
0	1271610	7427.97	6909.97
0	1271611	7427.97	6809.97
0	1271612	7427.97	6709.97
0	1271613	7427.97	6609.97
0	1271614	7427.97	6509.97
0	1271615	7427.97	6409.97
0	1271616	7427.97	6309.97
0	1271617	7427.97	6209.97
0	1271618	7427.97	6109.97
0	1271619	7427.97	6009.97
0	1271620	7427.97	5909.97
0	1271621	7427.97	5809.97
0	1271622	7427.97	5709.97
0	1271623	7427.97	5609.97
0	1271624	7427.97	5509.97
0	1271625	7427.97	7208.97
0	1271626	7427.97	7108.97
0	1271627	7427.97	7008.97
0	1271628	7427.97	6908.97
0	1271629	7427.97	6808.97
0	1271630	7427.97	6708.97
0	1271631	7427.97	6608.97
0	1271632	7427.97	6508.97
0	1271633	7427.97	6408.97
0	1271634	7427.97	6308.97
0	1271635	7427.97	6208.97
0	1271636	7427.97	6108.97
0	1271637	7427.97	6008.97
0	1271638	7427.97	5908.97
0	1271639	7427.97	5808.97
0	1271640	7427.97	5708.97
0	1271641	7427.97	5608.97
0	1271642	7427.97	5508.97
0	1271643	7427.97	7207.97
0	1271644	7427.97	7107.97
0	1271645	7427.97	7007.97
0	1271646	7427.97	6907.97
0	1271647	7427.97	6807.97
0	1271648	7427.97	6707.97
0	1271649	7427.97	6607.97
0	1271650	7427.97	6507.97
0	1271651	7427.97	6407.97
0	1271652	7427.97	6307.97
0	1271653	7427.97	6207.97
0	1271654	7427.97	6107.97
0	1271655	7427.97	6007.97
0	1271656	7427.97	5907.97
0	1271657	7427.97	5807.97
0	1271658	7427.97	5707.97
0	1271659	7427.97	5607.97
0	1271660	7427.97	5507.97
0	1271661	7427.97	7206.97
0	1271662	7427.97	7106.97
0	1271663	7427.97	7006.97
0	1271664	7427.97	6906.97
0	1271665	7427.97	6806.97
0	1271666	7427.97	6706.97
0	1271667	7427.97	6606.97
0	1271668	7427.97	6506.97
0	1271669	7427.97	6406.97
0	1271670	7427.97	6306.97
0	1271671	7427.97	6206.97
0	1271672	7427.97	6106.97
0	1271673	7427.97	6006.97
0	1271674	7427.97	5906.97
0	1271675	7427.97	5806.97
0	1271676	7427.97	5706.97
0	1271677	7427.97	5606.97
0	1271678	7427.97	5506.97
0	1271679	7427.97	7205.97
0	1271680	7427.97	7105.97
0	1271681	7427.97	7005.97
0	1271682	7427.97	6905.97
0	1271683	7427.97	6805.97
0	1271684	7427.97	6705.97
0	1271685	7427.97	6605.97
0	1271686	7427.97	6505.97
0	1271687	7427.97	6405.97
0	1271688	7427.97	6305.97
0	1271689	7427.97	6205.97
0	1271690	7427.97	6105.97
0	1271691	7427.97	6005.97
0	1271692	7427.97	5905.97
0	1271693	7427.97	5805.97
0	1271694	7427.97	5705.97
0	1271695	7427.97	5605.97
0	1271696	7427.97	5505.97
0	1271697	7427.97	7204.97
0	1271698	7427.97	7104.97
0	1271699	7427.97	7004.97
0	1271700	7427.97	6904.97
0	1271701	7427.97	6804.97
0	1271702	7427.97	6704.97
0	1271703	7427.97	6604.97
0	1271704	7427.97	6504.97
0	1271705	7427.97	6404.97
0	1271706	7427.97	6304.97
0	1271707	7427.97	6204.97
0	1271708	7427.97	6104.97
0	1271709	7427.97	6004.97
0	1271710	7427.97	5904.97
0	1271711	7427.97	5804.97
0	1271712	7427.97	5704.97
0	1271713	7427.97	5604.97
0	1271714	7427.97	5504.97
0	1271715	7427.97	7203.97
0	1271716	7427.97	7103.97
0	1271717	7427.97	7003.97
0	1271718	7427.97	6903.97
0	1271719	7427.97	6803.97
0	1271720	7427.97	6703.97
0	1271721	7427.97	6603.97
0	1271722	7427.97	6503.97
0	1271723	7427.97	6403.97
0	1271724	7427.97	6303.97
0	1271725	7427.97	6203.97
0	1271726	7427.97	6103.97
0	1271727	7427.97	6003.97
0	1271728	7427.97	5903.97
0	1271729	7427.97	5803.97
0	1271730	7427.97	5703.97
0	1271731	7427.97	5603.97
0	1271732	7427.97	5503.97
0	1271733	7427.97	7202.97
0	1271734	7427.97	7102.97
0	1271735	7427.97	7002.97
0	1271736	7427.97	6902.97
0	1271737	7427.97	6802.97
0	1271738	7427.97	6702.97
0	1271739	7427.97	6602.97
0	1271740	7427.97	6502.97
0	1271741	7427.97	6402.97
0	1271742	7427.97	6302.97
0	1271743	7427.97	6202.97
0	1271744	7427.97	6102.97
0	1271745	7427.97	6002.97
0	1271746	7427.97	5902.97
0	1271747	7427.97	5802.97
0	1271748	7427.97	5702.97
0	1271749	7427.97	5602.97
0	1271750	7427.97	5502.97
0	1271751	7427.97	7201.97
0	1271752	7427.97	7101.97
0	1271753	7427.97	7001.97
0	1271754	7427.97	6901.97
0	1271755	7427.97	6801.97
0	1271756	7427.97	6701.97
0	1271757	7427.97	6601.97
0	1271758	7427.97	6501.97
0	1271759	7427.97	6401.97
0	1271760	7427.97	6301.97
0	1271761	7427.97	6201.97
0	1271762	7427.97	6101.97
0	1271763	7427.97	6001.97
0	1271764	7427.97	5901.97
0	1271765	7427.97	5801.97
0	1271766	7427.97	5701.97
0	1271767	7427.97	5601.97
0	1271768	7427.97	5501.97
0	1271769	7427.97	7200.97
0	1271770	7427.97	7100.97
0	1271771	7427.97	7000.97
0	1271772	7427.97	6900.97
0	1271773	7427.97	6800.97
0	1271774	7427.97	6700.97
0	1271775	7427.97	6600.97
0	1271776	7427.97	6500.97
0	1271777	7427.97	6400.97
0	1271778	7427.97	6300.97
0	1271779	7427.97	6200.97
0	1271780	7427.97	6100.97
0	1271781	7427.97	6000.97
0	1271782	7427.97	5900.97
0	1271783	7427.97	5800.97
0	1271784	7427.97	5700.97
0	1271785	7427.97	5600.97
0	1271786	7427.97	5500.97
0	1271787	7427.97	7199.97
0	1271788	7427.97	7099.97
0	1271789	7427.97	6999.97
0	1271790	7427.97	6899.97
0	1271791	7427.97	6799.97
0	1271792	7427.97	6699.97
0	1271793	7427.97	6599.97
0	1271794	7427.97	6499.97
0	1271795	7427.97	6399.97
0	1271796	7427.97	6299.97
0	1271797	7427.97	6199.97
0	1271798	7427.97	6099.97
0	1271799	7427.97	5999.97
0	1271800	7427.97	5899.97
0	1271801	7427.97	5799.97
0	1271802	7427.97	5699.97
0	1271803	7427.97	5599.97
0	1271804	7427.97	5499.97
0	1271805	7427.97	7198.97
0	1271806	7427.97	7098.97
0	1271807	7427.97	6998.97
0	1271808	7427.97	6898.97
0	1271809	7427.97	6798.97
0	1271810	7427.97	6698.97
0	1271811	7427.97	6598.97
0	1271812	7427.97	6498.97
0	1271813	7427.97	6398.97
0	1271814	7427.97	6298.97
0	1271815	7427.97	6198.97
0	1271816	7427.97	6098.97
0	1271817	7427.97	5998.97
0	1271818	7427.97	5898.97
0	1271819	7427.97	5798.97
0	1271820	7427.97	5698.97
0	1271821	7427.97	5598.97
0	1271822	7427.97	5498.97
0	1271823	7427.97	7197.97
0	1271824	7427.97	7097.97
0	1271825	7427.97	6997.97
0	1271826	7427.97	6897.97
0	1271827	7427.97	6797.97
0	1271828	7427.97	6697.97
0	1271829	7427.97	6597.97
0	1271830	7427.97	6497.97
0	1271831	7427.97	6397.97
0	1271832	7427.97	6297.97
0	1271833	7427.97	6197.97
0	1271834	7427.97	6097.97
0	1271835	7427.97	5997.97
0	1271836	7427.97	5897.97
0	1271837	7427.97	5797.97
0	1271838	7427.97	5697.97
0	1271839	7427.97	5597.97
0	1271840	7427.97	5497.97
0	1271841	7427.97	7196.97
0	1271842	7427.97	7096.97
0	1271843	7427.97	6996.97
0	1271844	7427.97	6896.97
0	1271845	7427.97	6796.97
0	1271846	7427.97	6696.97
0	1271847	7427.97	6596.97
0	1271848	7427.97	6496.97
0	1271849	7427.97	6396.97
0	1271850	7427.97	6296.97
0	1271851	7427.97	6196.97
0	1271852	7427.97	6096.97
0	1271853	7427.97	5996.97
0	1271854	7427.97	5896.97
0	1271855	7427.97	5796.97
0	1271856	7427.97	5696.97
0	1271857	7427.97	5596.97
0	1271858	7427.97	5496.97
0	1271859	7427.97	7195.97
0	1271860	7427.97	7095.97
0	1271861	7427.97	6995.97
0	1271862	7427.97	6895.97
0	1271863	7427.97	6795.97
0	1271864	7427.97	6695.97
0	1271865	7427.97	6595.97
0	1271866	7427.97	6495.97
0	1271867	7427.97	6395.97
0	1271868	7427.97	6295.97
0	1271869	7427.97	6195.97
0	1271870	7427.97	6095.97
0	1271871	7427.97	5995.97
0	1271872	7427.97	5895.97
0	1271873	7427.97	5795.97
0	1271874	7427.97	5695.97
0	1271875	7427.97	5595.97
0	1271876	7427.97	5495.97
0	1271877	7427.97	7194.97
0	1271878	7427.97	7094.97
0	1271879	7427.97	6994.97
0	1271880	7427.97	6894.97
0	1271881	7427.97	6794.97
0	1271882	7427.97	6694.97
0	1271883	7427.97	6594.97
0	1271884	7427.97	6494.97
0	1271885	7427.97	6394.97
0	1271886	7427.97	6294.97
0	1271887	7427.97	6194.97
0	1271888	7427.97	6094.97
0	1271889	7427.97	5994.97
0	1271890	7427.97	5894.97
0	1271891	7427.97	5794.97
0	1271892	7427.97	5694.97
0	1271893	7427.97	5594.97
0	1271894	7427.97	5494.97
0	1271895	7427.97	7193.97
0	1271896	7427.97	7093.97
0	1271897	7427.97	6993.97
0	1271898	7427.97	6893.97
0	1271899	7427.97	6793.97
0	1271900	7427.97	6693.97
0	1271901	7427.97	6593.97
0	1271902	7427.97	6493.97
0	1271903	7427.97	6393.97
0	1271904	7427.97	6293.97
0	1271905	7427.97	6193.97
0	1271906	7427.97	6093.97
0	1271907	7427.97	5993.97
0	1271908	7427.97	5893.97
0	1271909	7427.97	5793.97
0	1271910	7427.97	5693.97
0	1271911	7427.97	5593.97
0	1271912	7427.97	5493.97
0	1271913	7427.97	7192.97
0	1271914	7427.97	7092.97
0	1271915	7427.97	6992.97
0	1271916	7427.97	6892.97
0	1271917	7427.97	6792.97
0	1271918	7427.97	6692.97
0	1271919	7427.97	6592.97
0	1271920	7427.97	6492.97
0	1271921	7427.97	6392.97
0	1271922	7427.97	6292.97
0	1271923	7427.97	6192.97
0	1271924	7427.97	6092.97
0	1271925	7427.97	5992.97
0	1271926	7427.97	5892.97
0	1271927	7427.97	5792.97
0	1271928	7427.97	5692.97
0	1271929	7427.97	5592.97
0	1271930	7427.97	5492.97
0	1271931	7427.97	7191.97
0	1271932	7427.97	7091.97
0	1271933	7427.97	6991.97
0	1271934	7427.97	6891.97
0	1271935	7427.97	6791.97
0	1271936	7427.97	6691.97
0	1271937	7427.97	6591.97
0	1271938	7427.97	6491.97
0	1271939	7427.97	6391.97
0	1271940	7427.97	6291.97
0	1271941	7427.97	6191.97
0	1271942	7427.97	6091.97
0	1271943	7427.97	5991.97
0	1271944	7427.97	5891.97
0	1271945	7427.97	5791.97
0	1271946	7427.97	5691.97
0	1271947	7427.97	5591.97
0	1271948	7427.97	5491.97
0	1271949	7427.97	7190.97
0	1271950	7427.97	7090.97
0	1271951	7427.97	6990.97
0	1271952	7427.97	6890.97
0	1271953	7427.97	6790.97
0	1271954	7427.97	6690.97
0	1271955	7427.97	6590.97
0	1271956	7427.97	6490.97
0	1271957	7427.97	6390.97
0	1271958	7427.97	6290.97
0	1271959	7427.97	6190.97
0	1271960	7427.97	6090.97
0	1271961	7427.97	5990.97
0	1271962	7427.97	5890.97
0	1271963	7427.97	5790.97
0	1271964	7427.97	5690.97
0	1271965	7427.97	5590.97
0	1271966	7427.97	5490.97
0	1271967	7427.97	7189.97
0	1271968	7427.97	7089.97
0	1271969	7427.97	6989.97
0	1271970	7427.97	6889.97
0	1271971	7427.97	6789.97
0	1271972	7427.97	6689.97
0	1271973	7427.97	6589.97
0	1271974	7427.97	6489.97
0	1271975	7427.97	6389.97
0	1271976	7427.97	6289.97
0	1271977	7427.97	6189.97
0	1271978	7427.97	6089.97
0	1271979	7427.97	5989.97
0	1271980	7427.97	5889.97
0	1271981	7427.97	5789.97
0	1271982	7427.97	5689.97
0	1271983	7427.97	5589.97
0	1271984	7427.97	5489.97
0	1271985	7427.97	7188.97
0	1271986	7427.97	7088.97
0	1271987	7427.97	6988.97
0	1271988	7427.97	6888.97
0	1271989	7427.97	6788.97
0	1271990	7427.97	6688.97
0	1271991	7427.97	6588.97
0	1271992	7427.97	6488.97
0	1271993	7427.97	6388.97
0	1271994	7427.97	6288.97
0	1271995	7427.97	6188.97
0	1271996	7427.97	6088.97
0	1271997	7427.97	5988.97
0	1271998	7427.97	5888.97
0	1271999	7427.97	5788.97
0	1272000	7427.97	5688.97
0	1272001	7427.97	5588.97
0	1272002	7427.97	5488.97
0	1272003	7427.97	7187.97
0	1272004	7427.97	7087.97
0	1272005	7427.97	6987.97
0	1272006	7427.97	6887.97
0	1272007	7427.97	6787.97
0	1272008	7427.97	6687.97
0	1272009	7427.97	6587.97
0	1272010	7427.97	6487.97
0	1272011	7427.97	6387.97
0	1272012	7427.97	6287.97
0	1272013	7427.97	6187.97
0	1272014	7427.97	6087.97
0	1272015	7427.97	5987.97
0	1272016	7427.97	5887.97
0	1272017	7427.97	5787.97
0	1272018	7427.97	5687.97
0	1272019	7427.97	5587.97
0	1272020	7427.97	5487.97
0	1272021	7427.97	7186.97
0	1272022	7427.97	7086.97
0	1272023	7427.97	6986.97
0	1272024	7427.97	6886.97
0	1272025	7427.97	6786.97
0	1272026	7427.97	6686.97
0	1272027	7427.97	6586.97
0	1272028	7427.97	6486.97
0	1272029	7427.97	6386.97
0	1272030	7427.97	6286.97
0	1272031	7427.97	6186.97
0	1272032	7427.97	6086.97
0	1272033	7427.97	5986.97
0	1272034	7427.97	5886.97
0	1272035	7427.97	5786.97
0	1272036	7427.97	5686.97
0	1272037	7427.97	5586.97
0	1272038	7427.97	5486.97
0	1272039	7427.97	7185.97
0	1272040	7427.97	7085.97
0	1272041	7427.97	6985.97
0	1272042	7427.97	6885.97
0	1272043	7427.97	6785.97
0	1272044	7427.97	6685.97
0	1272045	7427.97	6585.97
0	1272046	7427.97	6485.97
0	1272047	7427.97	6385.97
0	1272048	7427.97	6285.97
0	1272049	7427.97	6185.97
0	1272050	7427.97	6085.97
0	1272051	7427.97	5985.97
0	1272052	7427.97	5885.97
0	1272053	7427.97	5785.97
0	1272054	7427.97	5685.97
0	1272055	7427.97	5585.97
0	1272056	7427.97	5485.97
0	1272057	7427.97	7184.97
0	1272058	7427.97	7084.97
0	1272059	7427.97	6984.97
0	1272060	7427.97	6884.97
0	1272061	7427.97	6784.97
0	1272062	7427.97	6684.97
0	1272063	7427.97	6584.97
0	1272064	7427.97	6484.97
0	1272065	7427.97	6384.97
0	1272066	7427.97	6284.97
0	1272067	7427.97	6184.97
0	1272068	7427.97	6084.97
0	1272069	7427.97	5984.97
0	1272070	7427.97	5884.97
0	1272071	7427.97	5784.97
0	1272072	7427.97	5684.97
0	1272073	7427.97	5584.97
0	1272074	7427.97	5484.97
0	1272075	7427.97	7183.97
0	1272076	7427.97	7083.97
0	1272077	7427.97	6983.97
0	1272078	7427.97	6883.97
0	1272079	7427.97	6783.97
0	1272080	7427.97	6683.97
0	1272081	7427.97	6583.97
0	1272082	7427.97	6483.97
0	1272083	7427.97	6383.97
0	1272084	7427.97	6283.97
0	1272085	7427.97	6183.97
0	1272086	7427.97	6083.97
0	1272087	7427.97	5983.97
0	1272088	7427.97	5883.97
0	1272089	7427.97	5783.97
0	1272090	7427.97	5683.97
0	1272091	7427.97	5583.97
0	1272092	7427.97	5483.97
0	1272093	7427.97	7182.97
0	1272094	7427.97	7082.97
0	1272095	7427.97	6982.97
0	1272096	7427.97	6882.97
0	1272097	7427.97	6782.97
0	1272098	7427.97	6682.97
0	1272099	7427.97	6582.97
0	1272100	7427.97	6482.97
0	1272101	7427.97	6382.97
0	1272102	7427.97	6282.97
0	1272103	7427.97	6182.97
0	1272104	7427.97	6082.97
0	1272105	7427.97	5982.97
0	1272106	7427.97	5882.97
0	1272107	7427.97	5782.97
0	1272108	7427.97	5682.97
0	1272109	7427.97	5582.97
0	1272110	7427.97	5482.97
0	1272111	7427.97	7181.97
0	1272112	7427.97	7081.97
0	1272113	7427.97	6981.97
0	1272114	7427.97	6881.97
0	1272115	7427.97	6781.97
0	1272116	7427.97	6681.97
0	1272117	7427.97	6581.97
0	1272118	7427.97	6481.97
0	1272119	7427.97	6381.97
0	1272120	7427.97	6281.97
0	1272121	7427.97	6181.97
0	1272122	7427.97	6081.97
0	1272123	7427.97	5981.97
0	1272124	7427.97	5881.97
0	1272125	7427.97	5781.97
0	1272126	7427.97	5681.97
0	1272127	7427.97	5581.97
0	1272128	7427.97	5481.97
0	1272129	7427.97	7180.97
0	1272130	7427.97	7080.97
0	1272131	7427.97	6980.97
0	1272132	7427.97	6880.97
0	1272133	7427.97	6780.97
0	1272134	7427.97	6680.97
0	1272135	7427.97	6580.97
0	1272136	7427.97	6480.97
0	1272137	7427.97	6380.97
0	1272138	7427.97	6280.97
0	1272139	7427.97	6180.97
0	1272140	7427.97	6080.97
0	1272141	7427.97	5980.97
0	1272142	7427.97	5880.97
0	1272143	7427.97	5780.97
0	1272144	7427.97	5680.97
0	1272145	7427.97	5580.97
0	1272146	7427.97	5480.97
0	1272147	7427.97	7179.97
0	1272148	7427.97	7079.97
0	1272149	7427.97	6979.97
0	1272150	7427.97	6879.97
0	1272151	7427.97	6779.97
0	1272152	7427.97	6679.97
0	1272153	7427.97	6579.97
0	1272154	7427.97	6479.97
0	1272155	7427.97	6379.97
0	1272156	7427.97	6279.97
0	1272157	7427.97	6179.97
0	1272158	7427.97	6079.97
0	1272159	7427.97	5979.97
0	1272160	7427.97	5879.97
0	1272161	7427.97	5779.97
0	1272162	7427.97	5679.97
0	1272163	7427.97	5579.97
0	1272164	7427.97	5479.97
0	1272165	7427.97	7178.97
0	1272166	7427.97	7078.97
0	1272167	7427.97	6978.97
0	1272168	7427.97	6878.97
0	1272169	7427.97	6778.97
0	1272170	7427.97	6678.97
0	1272171	7427.97	6578.97
0	1272172	7427.97	6478.97
0	1272173	7427.97	6378.97
0	1272174	7427.97	6278.97
0	1272175	7427.97	6178.97
0	1272176	7427.97	6078.97
0	1272177	7427.97	5978.97
0	1272178	7427.97	5878.97
0	1272179	7427.97	5778.97
0	1272180	7427.97	5678.97
0	1272181	7427.97	5578.97
0	1272182	7427.97	5478.97
0	1272183	7427.97	7177.97
0	1272184	7427.97	7077.97
0	1272185	7427.97	6977.97
0	1272186	7427.97	6877.97
0	1272187	7427.97	6777.97
0	1272188	7427.97	6677.97
0	1272189	7427.97	6577.97
0	1272190	7427.97	6477.97
0	1272191	7427.97	6377.97
0	1272192	7427.97	6277.97
0	1272193	7427.97	6177.97
0	1272194	7427.97	6077.97
0	1272195	7427.97	5977.97
0	1272196	7427.97	5877.97
0	1272197	7427.97	5777.97
0	1272198	7427.97	5677.97
0	1272199	7427.97	5577.97
0	1272200	7427.97	5477.97
0	1272201	7427.97	7176.97
0	1272202	7427.97	7076.97
0	1272203	7427.97	6976.97
0	1272204	7427.97	6876.97
0	1272205	7427.97	6776.97
0	1272206	7427.97	6676.97
0	1272207	7427.97	6576.97
0	1272208	7427.97	6476.97
0	1272209	7427.97	6376.97
0	1272210	7427.97	6276.97
0	1272211	7427.97	6176.97
0	1272212	7427.97	6076.97
0	1272213	7427.97	5976.97
0	1272214	7427.97	5876.97
0	1272215	7427.97	5776.97
0	1272216	7427.97	5676.97
0	1272217	7427.97	5576.97
0	1272218	7427.97	5476.97
0	1272219	7427.97	7175.97
0	1272220	7427.97	7075.97
0	1272221	7427.97	6975.97
0	1272222	7427.97	6875.97
0	1272223	7427.97	6775.97
0	1272224	7427.97	6675.97
0	1272225	7427.97	6575.97
0	1272226	7427.97	6475.97
0	1272227	7427.97	6375.97
0	1272228	7427.97	6275.97
0	1272229	7427.97	6175.97
0	1272230	7427.97	6075.97
0	1272231	7427.97	5975.97
0	1272232	7427.97	5875.97
0	1272233	7427.97	5775.97
0	1272234	7427.97	5675.97
0	1272235	7427.97	5575.97
0	1272236	7427.97	5475.97

