version 2
run General-0-20250116-08:09:54-157637
attr configname General
attr datetime 20250116-08:09:54
attr experiment General
attr inifile shaw.ini
attr iterationvars ""
attr iterationvarsf ""
attr measurement ""
attr network src.dtnsim
attr processid 157637
attr repetition 0
attr replication #0
attr resultdir results
attr runnumber 0
attr seedset 0
param dtnsim.central.contactsFile "\"contactPlan/Contacts.txt\""
param dtnsim.central.contactsFile_A "\"contactPlan/Contacts.txt\""
param dtnsim.central.contactsFile_B "\"contactPlan/Contacts.txt\""
param dtnsim.central.contactIdsToDelete "\"1 3 5 9 14 17 20 29 33 35 39 43 45 49 56 59 64 73 86 91 93 94 99 106 117 123 125 128 129 130 134 135 141 145 154 161 163 169 178 181 183 184 185 186 188 195 198 217 219 223 228 237 240 243 252 256 258 260 262 264 266 267 268 269 273 275 283 284 285 286 290 291 293 298 301 303 313 320 338 343 344 352 358 360 363 372 386 395 402 412 413 415 419 421 424 430 439 447 451 454\""
param dtnsim.central.faultsAware false
param dtnsim.nodesNumber 6
param dtnsim.node[1].icon "\"receiverdish\""
param dtnsim.node[2..5].icon "\"satellite\""
param dtnsim.node[6].icon "\"receiverdish\""
param dtnsim.node[*].dtn.routing "\"cgrModel350\""
param dtnsim.node[*].dtn.routingType "\"routeListType:allPaths-firstEnding,volumeAware:allContacts,extensionBlock:on,contactPlan:global\""
param dtnsim.node[1].app.enable true
param dtnsim.node[1].app.bundlesNumber "\"8640\""
param dtnsim.node[1].app.start "\"0\""
param dtnsim.node[1].app.destinationEid "\"6\""
param dtnsim.node[1].app.size "\"1500\""
param dtnsim.node[1].app.interval 10

vector 0 dtnsim.node[6].app appBundleReceivedDelayvec:vector ETV
attr interpolationmode none
attr source appBundleReceivedDelay
attr title "appBundleReceivedDelayvec, vector"
0	5615	4210	4210
0	5626	4210	4200
0	5637	4210	4190
0	5644	4210	4180
0	5650	4210	4170
0	5656	4210	4160
0	5662	4210	4150
0	5668	4210	4140
0	5674	4210	4130
0	5680	4210	4120
0	5686	4210	4110
0	5692	4210	4100
0	5698	4210	4090
0	5704	4210	4080
0	5710	4210	4070
0	5716	4210	4060
0	5722	4210	4050
0	5728	4210	4040
0	5734	4210	4030
0	5740	4210	4020
0	5746	4210	4010
0	5752	4210	4000
0	5758	4210	3990
0	5764	4210	3980
0	5770	4210	3970
0	5776	4210	3960
0	5782	4210	3950
0	5788	4210	3940
0	5794	4210	3930
0	5800	4210	3920
0	5806	4210	3910
0	5812	4210	3900
0	5818	4210	3890
0	5824	4210	3880
0	5830	4210	3870
0	5836	4210	3860
0	5842	4210	3850
0	5848	4210	3840
0	5854	4210	3830
0	5860	4210	3820
0	5866	4210	3810
0	5872	4210	3800
0	5878	4210	3790
0	5884	4210	3780
0	5890	4210	3770
0	5896	4210	3760
0	5902	4210	3750
0	5908	4210	3740
0	5914	4210	3730
0	5920	4210	3720
0	5926	4210	3710
0	5932	4210	3700
0	5938	4210	3690
0	5944	4210	3680
0	5950	4210	3670
0	5956	4210	3660
0	5962	4210	3650
0	5968	4210	3640
0	5974	4210	3630
0	5980	4210	3620
0	5986	4210	3610
0	5992	4210	3600
0	5998	4210	3590
0	6004	4210	3580
0	6010	4210	3570
0	6016	4210	3560
0	6022	4210	3550
0	6028	4210	3540
0	6034	4210	3530
0	6040	4210	3520
0	6046	4210	3510
0	6052	4210	3500
0	6058	4210	3490
0	6064	4210	3480
0	6070	4210	3470
0	6076	4210	3460
0	6082	4210	3450
0	6088	4210	3440
0	6094	4210	3430
0	6100	4210	3420
0	6106	4210	3410
0	6112	4210	3400
0	6118	4210	3390
0	6124	4210	3380
0	6130	4210	3370
0	6136	4210	3360
0	6142	4210	3350
0	6148	4210	3340
0	6154	4210	3330
0	6160	4210	3320
0	6166	4210	3310
0	6172	4210	3300
0	6178	4210	3290
0	6184	4210	3280
0	6190	4210	3270
0	6196	4210	3260
0	6202	4210	3250
0	6208	4210	3240
0	6214	4210	3230
0	6220	4210	3220
0	6226	4210	3210
0	6232	4210	3200
0	6238	4210	3190
0	6244	4210	3180
0	6250	4210	3170
0	6256	4210	3160
0	6262	4210	3150
0	6268	4210	3140
0	6274	4210	3130
0	6280	4210	3120
0	6286	4210	3110
0	6292	4210	3100
0	6298	4210	3090
0	6304	4210	3080
0	6310	4210	3070
0	6316	4210	3060
0	6322	4210	3050
0	6328	4210	3040
0	6334	4210	3030
0	6340	4210	3020
0	6346	4210	3010
0	6352	4210	3000
0	6358	4210	2990
0	6364	4210	2980
0	6370	4210	2970
0	6376	4210	2960
0	6382	4210	2950
0	6388	4210	2940
0	6394	4210	2930
0	6400	4210	2920
0	6406	4210	2910
0	6412	4210	2900
0	6418	4210	2890
0	6424	4210	2880
0	6430	4210	2870
0	6436	4210	2860
0	6442	4210	2850
0	6448	4210	2840
0	6454	4210	2830
0	6460	4210	2820
0	6466	4210	2810
0	6472	4210	2800
0	6478	4210	2790
0	6484	4210	2780
0	6490	4210	2770
0	6496	4210	2760
0	6502	4210	2750
0	6508	4210	2740
0	6514	4210	2730
0	6520	4210	2720
0	6526	4210	2710
0	6532	4210	2700
0	6538	4210	2690
0	6544	4210	2680
0	6550	4210	2670
0	6556	4210	2660
0	6562	4210	2650
0	6568	4210	2640
0	6574	4210	2630
0	6580	4210	2620
0	6586	4210	2610
0	6592	4210	2600
0	6598	4210	2590
0	6604	4210	2580
0	6610	4210	2570
0	6616	4210	2560
0	6622	4210	2550
0	6628	4210	2540
0	6634	4210	2530
0	6640	4210	2520
0	6646	4210	2510
0	6652	4210	2500
0	6658	4210	2490
0	6664	4210	2480
0	6670	4210	2470
0	6676	4210	2460
0	6682	4210	2450
0	6688	4210	2440
0	6694	4210	2430
0	6700	4210	2420
0	6706	4210	2410
0	6712	4210	2400
0	6718	4210	2390
0	6724	4210	2380
0	6730	4210	2370
0	6736	4210	2360
0	6742	4210	2350
0	6748	4210	2340
0	6754	4210	2330
0	6760	4210	2320
0	6766	4210	2310
0	6772	4210	2300
0	6778	4210	2290
0	6784	4210	2280
0	6790	4210	2270
0	6796	4210	2260
0	6802	4210	2250
0	6808	4210	2240
0	6814	4210	2230
0	6820	4210	2220
0	6826	4210	2210
0	6832	4210	2200
0	6838	4210	2190
0	6844	4210	2180
0	6850	4210	2170
0	6856	4210	2160
0	6862	4210	2150
0	6868	4210	2140
0	6874	4210	2130
0	6880	4210	2120
0	6886	4210	2110
0	6892	4210	2100
0	6898	4210	2090
0	6904	4210	2080
0	6910	4210	2070
0	6916	4210	2060
0	6922	4210	2050
0	6928	4210	2040
0	6934	4210	2030
0	6940	4210	2020
0	6946	4210	2010
0	6952	4210	2000
0	6958	4210	1990
0	6964	4210	1980
0	6970	4210	1970
0	6976	4210	1960
0	6982	4210	1950
0	6988	4210	1940
0	6994	4210	1930
0	7000	4210	1920
0	7006	4210	1910
0	7012	4210	1900
0	7018	4210	1890
0	7024	4210	1880
0	7030	4210	1870
0	7036	4210	1860
0	7042	4210	1850
0	7048	4210	1840
0	7054	4210	1830
0	7060	4210	1820
0	7066	4210	1810
0	7072	4210	1800
0	7078	4210	1790
0	7084	4210	1780
0	7090	4210	1770
0	7096	4210	1760
0	7102	4210	1750
0	7108	4210	1740
0	7114	4210	1730
0	7120	4210	1720
0	7126	4210	1710
0	7132	4210	1700
0	7138	4210	1690
0	7144	4210	1680
0	7150	4210	1670
0	7156	4210	1660
0	7162	4210	1650
0	7168	4210	1640
0	7174	4210	1630
0	7180	4210	1620
0	7186	4210	1610
0	7192	4210	1600
0	7198	4210	1590
0	7204	4210	1580
0	7210	4210	1570
0	7216	4210	1560
0	7222	4210	1550
0	7228	4210	1540
0	7234	4210	1530
0	7240	4210	1520
0	7246	4210	1510
0	7252	4210	1500
0	7258	4210	1490
0	7264	4210	1480
0	7270	4210	1470
0	7276	4210	1460
0	7282	4210	1450
0	7288	4210	1440
0	7294	4210	1430
0	7300	4210	1420
0	7306	4210	1410
0	7312	4210	1400
0	7318	4210	1390
0	7324	4210	1380
0	7330	4210	1370
0	7336	4210	1360
0	7342	4210	1350
0	7348	4210	1340
0	7354	4210	1330
0	7360	4210	1320
0	7366	4210	1310
0	7372	4210	1300
0	7378	4210	1290
0	7384	4210	1280
0	7390	4210	1270
0	7396	4210	1260
0	7402	4210	1250
0	7408	4210	1240
0	7414	4210	1230
0	7420	4210	1220
0	7426	4210	1210
0	7432	4210	1200
0	7438	4210	1190
0	7444	4210	1180
0	7450	4210	1170
0	7456	4210	1160
0	7462	4210	1150
0	7468	4210	1140
0	7474	4210	1130
0	7480	4210	1120
0	7486	4210	1110
0	7492	4210	1100
0	7498	4210	1090
0	7504	4210	1080
0	7510	4210	1070
0	7516	4210	1060
0	7522	4210	1050
0	7528	4210	1040
0	7534	4210	1030
0	7540	4210	1020
0	7546	4210	1010
0	7552	4210	1000
0	7558	4210	990
0	7564	4210	980
0	7570	4210	970
0	7576	4210	960
0	7582	4210	950
0	7588	4210	940
0	7594	4210	930
0	7600	4210	920
0	7606	4210	910
0	7612	4210	900
0	7618	4210	890
0	7624	4210	880
0	7630	4210	870
0	7636	4210	860
0	7642	4210	850
0	7648	4210	840
0	7654	4210	830
0	7660	4210	820
0	7666	4210	810
0	7678	4218	808
0	7703	4228	808
0	7728	4238	808
0	7753	4248	808
0	7778	4258	808
0	7803	4268	808
0	7828	4278	808
0	7853	4288	808
0	7878	4298	808
0	7903	4308	808
0	7928	4318	808
0	7953	4328	808
0	7978	4338	808
0	8003	4348	808
0	8028	4358	808
0	8053	4368	808
0	8078	4378	808
0	8103	4388	808
0	8129	4398	808
0	8153	4408	808
0	8177	4418	808
0	8201	4428	808
0	8226	4438	808
0	8250	4448	808
0	8274	4458	808
0	8298	4468	808
0	8322	4478	808
0	8346	4488	808
0	8370	4498	808
0	8394	4508	808
0	8418	4518	808
0	8442	4528	808
0	8466	4538	808
0	8490	4548	808
0	8514	4558	808
0	8538	4568	808
0	8562	4578	808
0	8586	4588	808
0	8610	4598	808
0	8634	4608	808
0	8658	4618	808
0	8682	4628	808
0	8706	4638	808
0	8730	4648	808
0	8754	4658	808
0	8775	4668	808
0	8796	4678	808
0	8819	4688	808
0	8840	4698	808
0	8861	4708	808
0	8882	4718	808
0	8903	4728	808
0	8924	4738	808
0	8945	4748	808
0	8966	4758	808
0	8987	4768	808
0	9008	4778	808
0	9029	4788	808
0	9050	4798	808
0	9071	4808	808
0	9092	4818	808
0	9113	4828	808
0	9134	4838	808
0	9155	4848	808
0	9176	4858	808
0	9197	4868	808
0	9218	4878	808
0	9239	4888	808
0	9260	4898	808
0	9281	4908	808
0	9302	4918	808
0	9323	4928	808
0	9346	4938	808
0	9367	4948	808
0	9388	4958	808
0	9409	4968	808
0	9430	4978	808
0	9451	4988	808
0	9472	4998	808
0	9493	5008	808
0	9514	5018	808
0	9535	5028	808
0	9556	5038	808
0	9577	5048	808
0	9598	5058	808
0	9619	5068	808
0	9640	5078	808
0	9661	5088	808
0	9682	5098	808
0	9703	5108	808
0	9724	5118	808
0	9745	5128	808
0	9766	5138	808
0	9787	5148	808
0	9808	5158	808
0	9829	5168	808
0	9850	5178	808
0	9871	5188	808
0	9892	5198	808
0	9913	5208	808
0	9934	5218	808
0	9955	5228	808
0	9976	5238	808
0	9997	5248	808
0	10018	5258	808
0	10039	5268	808
0	10060	5278	808
0	10081	5288	808
0	10102	5298	808
0	10123	5308	808
0	10144	5318	808
0	10165	5328	808
0	10186	5338	808
0	10207	5348	808
0	10228	5358	808
0	10249	5368	808
0	10270	5378	808
0	10291	5388	808
0	10312	5398	808
0	10333	5408	808
0	10354	5418	808
0	10375	5428	808
0	10396	5438	808
0	10417	5448	808
0	10438	5458	808
0	11901	7651	2991
0	11907	7651	2981
0	11913	7651	2971
0	11919	7651	2961
0	11925	7651	2951
0	11931	7651	2941
0	11937	7651	2931
0	11943	7651	2921
0	11949	7651	2911
0	11955	7651	2901
0	11961	7651	2891
0	11967	7651	2881
0	11973	7651	2871
0	11979	7651	2861
0	11985	7651	2851
0	11991	7651	2841
0	11997	7651	2831
0	12003	7651	2821
0	12009	7651	2811
0	12015	7651	2801
0	12021	7651	2791
0	12027	7651	2781
0	12033	7651	2771
0	12039	7651	2761
0	12045	7651	2751
0	12051	7651	2741
0	12057	7651	2731
0	12063	7651	2721
0	12069	7651	2711
0	12075	7651	2701
0	12081	7651	2691
0	12087	7651	2681
0	12093	7651	2671
0	12099	7651	2661
0	12105	7651	2651
0	12111	7651	2641
0	12117	7651	2631
0	12123	7651	2621
0	12129	7651	2611
0	12135	7651	2601
0	12141	7651	2591
0	12147	7651	2581
0	12153	7651	2571
0	12159	7651	2561
0	12165	7651	2551
0	12171	7651	2541
0	12177	7651	2531
0	12183	7651	2521
0	12189	7651	2511
0	12195	7651	2501
0	12201	7651	2491
0	12207	7651	2481
0	12213	7651	2471
0	12219	7651	2461
0	12225	7651	2451
0	12231	7651	2441
0	12237	7651	2431
0	12243	7651	2421
0	12249	7651	2411
0	12255	7651	2401
0	12261	7651	2391
0	12267	7651	2381
0	12273	7651	2371
0	12279	7651	2361
0	12285	7651	2351
0	12291	7651	2341
0	12297	7651	2331
0	12303	7651	2321
0	12309	7651	2311
0	12315	7651	2301
0	12321	7651	2291
0	12327	7651	2281
0	12333	7651	2271
0	12339	7651	2261
0	12345	7651	2251
0	12351	7651	2241
0	12357	7651	2231
0	12363	7651	2221
0	12369	7651	2211
0	12375	7651	2201
0	12381	7651	2191
0	30003	16688	6128
0	30010	16688	6118
0	30016	16688	6108
0	30022	16688	6098
0	30028	16688	6088
0	30034	16688	6078
0	30040	16688	6068
0	30046	16688	6058
0	30052	16688	6048
0	30058	16688	6038
0	30064	16688	6028
0	30070	16688	6018
0	30076	16688	6008
0	30082	16688	5998
0	30088	16688	5988
0	30094	16688	5978
0	30100	16688	5968
0	30106	16688	5958
0	30112	16688	5948
0	30118	16688	5938
0	30124	16688	5928
0	30130	16688	5918
0	30136	16688	5908
0	30142	16688	5898
0	30148	16688	5888
0	30154	16688	5878
0	30160	16688	5868
0	30166	16688	5858
0	30172	16688	5848
0	30178	16688	5838
0	30184	16688	5828
0	30190	16688	5818
0	30196	16688	5808
0	30202	16688	5798
0	30208	16688	5788
0	30214	16688	5778
0	30220	16688	5768
0	30226	16688	5758
0	30232	16688	5748
0	30238	16688	5738
0	30244	16688	5728
0	30250	16688	5718
0	30256	16688	5708
0	30262	16688	5698
0	30268	16688	5688
0	30274	16688	5678
0	30280	16688	5668
0	30286	16688	5658
0	30292	16688	5648
0	30298	16688	5638
0	30304	16688	5628
0	30310	16688	5618
0	30316	16688	5608
0	30322	16688	5598
0	30328	16688	5588
0	30334	16688	5578
0	30340	16688	5568
0	30346	16688	5558
0	30352	16688	5548
0	30358	16688	5538
0	30364	16688	5528
0	30370	16688	5518
0	30376	16688	5508
0	30382	16688	5498
0	30388	16688	5488
0	30394	16688	5478
0	30400	16688	5468
0	30406	16688	5458
0	30412	16688	5448
0	30418	16688	5438
0	30424	16688	5428
0	30430	16688	5418
0	30436	16688	5408
0	30442	16688	5398
0	30448	16688	5388
0	30454	16688	5378
0	30460	16688	5368
0	30466	16688	5358
0	30472	16688	5348
0	30478	16688	5338
0	30484	16688	5328
0	30490	16688	5318
0	30496	16688	5308
0	30502	16688	5298
0	30508	16688	5288
0	30514	16688	5278
0	30520	16688	5268
0	30526	16688	5258
0	30532	16688	5248
0	30538	16688	5238
0	30544	16688	5228
0	30550	16688	5218
0	30556	16688	5208
0	30562	16688	5198
0	30568	16688	5188
0	30574	16688	5178
0	30580	16688	5168
0	30586	16688	5158
0	30592	16688	5148
0	30598	16688	5138
0	30604	16688	5128
0	30610	16688	5118
0	30616	16688	5108
0	30622	16688	5098
0	30628	16688	5088
0	30634	16688	5078
0	30640	16688	5068
0	30646	16688	5058
0	30652	16688	5048
0	30658	16688	5038
0	30664	16688	5028
0	30670	16688	5018
0	30676	16688	5008
0	30682	16688	4998
0	30688	16688	4988
0	30694	16688	4978
0	30700	16688	4968
0	30706	16688	4958
0	30712	16688	4948
0	30718	16688	4938
0	30724	16688	4928
0	30730	16688	4918
0	30736	16688	4908
0	30742	16688	4898
0	30748	16688	4888
0	30754	16688	4878
0	30760	16688	4868
0	30766	16688	4858
0	30772	16688	4848
0	30778	16688	4838
0	30784	16688	4828
0	30790	16688	4818
0	30796	16688	4808
0	30802	16688	4798
0	30808	16688	4788
0	30814	16688	4778
0	30820	16688	4768
0	30826	16688	4758
0	30832	16688	4748
0	30838	16688	4738
0	30844	16688	4728
0	30850	16688	4718
0	30856	16688	4708
0	30862	16688	4698
0	30868	16688	4688
0	30874	16688	4678
0	30880	16688	4668
0	30886	16688	4658
0	30892	16688	4648
0	30898	16688	4638
0	30904	16688	4628
0	30910	16688	4618
0	30916	16688	4608
0	30922	16688	4598
0	30928	16688	4588
0	30934	16688	4578
0	30940	16688	4568
0	30946	16688	4558
0	30952	16688	4548
0	30958	16688	4538
0	30964	16688	4528
0	30970	16688	4518
0	30976	16688	4508
0	30982	16688	4498
0	30988	16688	4488
0	30994	16688	4478
0	31000	16688	4468
0	31006	16688	4458
0	31012	16688	4448
0	31018	16688	4438
0	31024	16688	4428
0	31030	16688	4418
0	31036	16688	4408
0	31042	16688	4398
0	31048	16688	4388
0	31054	16688	4378
0	31060	16688	4368
0	31066	16688	4358
0	31072	16688	4348
0	31078	16688	4338
0	31084	16688	4328
0	31090	16688	4318
0	31096	16688	4308
0	31102	16688	4298
0	31108	16688	4288
0	31114	16688	4278
0	31120	16688	4268
0	31126	16688	4258
0	31132	16688	4248
0	31138	16688	4238
0	31144	16688	4228
0	31150	16688	4218
0	31156	16688	4208
0	31162	16688	4198
0	31168	16688	4188
0	31174	16688	4178
0	31180	16688	4168
0	31186	16688	4158
0	31192	16688	4148
0	31198	16688	4138
0	31204	16688	4128
0	31210	16688	4118
0	31216	16688	4108
0	31222	16688	4098
0	31228	16688	4088
0	31234	16688	4078
0	31240	16688	4068
0	31246	16688	4058
0	31252	16688	4048
0	31258	16688	4038
0	31264	16688	4028
0	31270	16688	4018
0	31276	16688	4008
0	31282	16688	3998
0	31288	16688	3988
0	31294	16688	3978
0	31300	16688	3968
0	31306	16688	3958
0	31312	16688	3948
0	31318	16688	3938
0	31324	16688	3928
0	31330	16688	3918
0	31336	16688	3908
0	31342	16688	3898
0	31348	16688	3888
0	31354	16688	3878
0	31360	16688	3868
0	31366	16688	3858
0	31372	16688	3848
0	31378	16688	3838
0	31384	16688	3828
0	31390	16688	3818
0	31396	16688	3808
0	31402	16688	3798
0	31408	16688	3788
0	31414	16688	3778
0	31420	16688	3768
0	31426	16688	3758
0	31432	16688	3748
0	31438	16688	3738
0	31444	16688	3728
0	31450	16688	3718
0	31456	16688	3708
0	31462	16688	3698
0	31468	16688	3688
0	31474	16688	3678
0	31480	16688	3668
0	31486	16688	3658
0	31492	16688	3648
0	31498	16688	3638
0	31504	16688	3628
0	31510	16688	3618
0	31516	16688	3608
0	31522	16688	3598
0	31528	16688	3588
0	31534	16688	3578
0	31540	16688	3568
0	31546	16688	3558
0	31552	16688	3548
0	31558	16688	3538
0	31564	16688	3528
0	31570	16688	3518
0	31576	16688	3508
0	31582	16688	3498
0	31588	16688	3488
0	31594	16688	3478
0	31600	16688	3468
0	31606	16688	3458
0	31612	16688	3448
0	31618	16688	3438
0	31624	16688	3428
0	31630	16688	3418
0	31636	16688	3408
0	31642	16688	3398
0	31648	16688	3388
0	31654	16688	3378
0	31660	16688	3368
0	31666	16688	3358
0	31672	16688	3348
0	31678	16688	3338
0	31684	16688	3328
0	31690	16688	3318
0	31696	16688	3308
0	31702	16688	3298
0	31708	16688	3288
0	31714	16688	3278
0	31720	16688	3268
0	31726	16688	3258
0	31732	16688	3248
0	31738	16688	3238
0	31744	16688	3228
0	31750	16688	3218
0	31756	16688	3208
0	31762	16688	3198
0	31768	16688	3188
0	31774	16688	3178
0	31780	16688	3168
0	31786	16688	3158
0	31792	16688	3148
0	31798	16688	3138
0	31804	16688	3128
0	31810	16688	3118
0	31816	16688	3108
0	31822	16688	3098
0	31828	16688	3088
0	31834	16688	3078
0	31840	16688	3068
0	31846	16688	3058
0	31852	16688	3048
0	31858	16688	3038
0	31864	16688	3028
0	31870	16688	3018
0	31876	16688	3008
0	31882	16688	2998
0	31888	16688	2988
0	31894	16688	2978
0	31900	16688	2968
0	31906	16688	2958
0	31912	16688	2948
0	31918	16688	2938
0	31924	16688	2928
0	31930	16688	2918
0	31936	16688	2908
0	31942	16688	2898
0	31948	16688	2888
0	31954	16688	2878
0	31960	16688	2868
0	31966	16688	2858
0	31972	16688	2848
0	31978	16688	2838
0	31984	16688	2828
0	31990	16688	2818
0	31996	16688	2808
0	32002	16688	2798
0	32008	16688	2788
0	32014	16688	2778
0	32020	16688	2768
0	32026	16688	2758
0	32032	16688	2748
0	32038	16688	2738
0	32044	16688	2728
0	32050	16688	2718
0	32056	16688	2708
0	32062	16688	2698
0	32068	16688	2688
0	32074	16688	2678
0	32080	16688	2668
0	32086	16688	2658
0	32092	16688	2648
0	32098	16688	2638
0	32104	16688	2628
0	32110	16688	2618
0	32116	16688	2608
0	32122	16688	2598
0	32128	16688	2588
0	32134	16688	2578
0	32140	16688	2568
0	32146	16688	2558
0	32152	16688	2548
0	32158	16688	2538
0	32164	16688	2528
0	32170	16688	2518
0	32176	16688	2508
0	32182	16688	2498
0	32188	16688	2488
0	32194	16688	2478
0	32200	16688	2468
0	32206	16688	2458
0	32212	16688	2448
0	32218	16688	2438
0	32224	16688	2428
0	32230	16688	2418
0	32236	16688	2408
0	32242	16688	2398
0	32248	16688	2388
0	32254	16688	2378
0	32260	16688	2368
0	32266	16688	2358
0	32272	16688	2348
0	32278	16688	2338
0	32284	16688	2328
0	32290	16688	2318
0	32296	16688	2308
0	32302	16688	2298
0	32308	16688	2288
0	32314	16688	2278
0	32320	16688	2268
0	32326	16688	2258
0	32332	16688	2248
0	32338	16688	2238
0	32344	16688	2228
0	32350	16688	2218
0	32356	16688	2208
0	32362	16688	2198
0	32368	16688	2188
0	32374	16688	2178
0	32380	16688	2168
0	32386	16688	2158
0	32392	16688	2148
0	32398	16688	2138
0	32404	16688	2128
0	32410	16688	2118
0	32416	16688	2108
0	32422	16688	2098
0	32428	16688	2088
0	32434	16688	2078
0	32440	16688	2068
0	32446	16688	2058
0	32452	16688	2048
0	32458	16688	2038
0	32464	16688	2028
0	32470	16688	2018
0	32476	16688	2008
0	32482	16688	1998
0	32488	16688	1988
0	32494	16688	1978
0	32500	16688	1968
0	32506	16688	1958
0	32512	16688	1948
0	32518	16688	1938
0	32524	16688	1928
0	32530	16688	1918
0	32536	16688	1908
0	32542	16688	1898
0	32548	16688	1888
0	32554	16688	1878
0	32560	16688	1868
0	32566	16688	1858
0	32572	16688	1848
0	32578	16688	1838
0	32584	16688	1828
0	32590	16688	1818
0	32596	16688	1808
0	32602	16688	1798
0	32608	16688	1788
0	32614	16688	1778
0	32620	16688	1768
0	32626	16688	1758
0	32632	16688	1748
0	32638	16688	1738
0	32644	16688	1728
0	32650	16688	1718
0	32656	16688	1708
0	32662	16688	1698
0	32668	16688	1688
0	32674	16688	1678
0	32680	16688	1668
0	32686	16688	1658
0	32692	16688	1648
0	32698	16688	1638
0	32704	16688	1628
0	32710	16688	1618
0	32716	16688	1608
0	32722	16688	1598
0	32728	16688	1588
0	32734	16688	1578
0	32740	16688	1568
0	32746	16688	1558
0	32752	16688	1548
0	32758	16688	1538
0	32764	16688	1528
0	32770	16688	1518
0	32776	16688	1508
0	32782	16688	1498
0	32788	16688	1488
0	32794	16688	1478
0	32800	16688	1468
0	32806	16688	1458
0	32812	16688	1448
0	32818	16688	1438
0	32824	16688	1428
0	32830	16688	1418
0	32836	16688	1408
0	32842	16688	1398
0	32848	16688	1388
0	32854	16688	1378
0	32860	16688	1368
0	32866	16688	1358
0	32872	16688	1348
0	32878	16688	1338
0	32884	16688	1328
0	32890	16688	1318
0	32896	16688	1308
0	32902	16688	1298
0	32908	16688	1288
0	32914	16688	1278
0	32920	16688	1268
0	32926	16688	1258
0	32932	16688	1248
0	32938	16688	1238
0	32944	16688	1228
0	32950	16688	1218
0	32956	16688	1208
0	32962	16688	1198
0	32968	16688	1188
0	32974	16688	1178
0	32980	16688	1168
0	32986	16688	1158
0	32992	16688	1148
0	32998	16688	1138
0	33004	16688	1128
0	33010	16688	1118
0	33016	16688	1108
0	33022	16688	1098
0	33028	16688	1088
0	33034	16688	1078
0	33040	16688	1068
0	33046	16688	1058
0	33052	16688	1048
0	33058	16688	1038
0	33064	16688	1028
0	33070	16688	1018
0	33076	16688	1008
0	33082	16688	998
0	33088	16688	988
0	33094	16688	978
0	33100	16688	968
0	33106	16688	958
0	33112	16688	948
0	33118	16688	938
0	33124	16688	928
0	33130	16688	918
0	33136	16688	908
0	33142	16688	898
0	33148	16688	888
0	33154	16688	878
0	33160	16688	868
0	33166	16688	858
0	33172	16688	848
0	33178	16688	838
0	33184	16688	828
0	33190	16688	818
0	33196	16688	808
0	36008	18779	2069
0	36015	18779	2059
0	36021	18779	2049
0	36027	18779	2039
0	36033	18779	2029
0	36039	18779	2019
0	36045	18779	2009
0	36051	18779	1999
0	36057	18779	1989
0	36063	18779	1979
0	36069	18779	1969
0	36075	18779	1959
0	36081	18779	1949
0	36087	18779	1939
0	36093	18779	1929
0	36099	18779	1919
0	36105	18779	1909
0	36111	18779	1899
0	36117	18779	1889
0	36123	18779	1879
0	36129	18779	1869
0	36135	18779	1859
0	36141	18779	1849
0	36147	18779	1839
0	36153	18779	1829
0	36159	18779	1819
0	36165	18779	1809
0	36171	18779	1799
0	36177	18779	1789
0	36183	18779	1779
0	36189	18779	1769
0	36195	18779	1759
0	36201	18779	1749
0	36207	18779	1739
0	36213	18779	1729
0	36219	18779	1719
0	36225	18779	1709
0	36231	18779	1699
0	36237	18779	1689
0	36243	18779	1679
0	36249	18779	1669
0	36255	18779	1659
0	36261	18779	1649
0	36267	18779	1639
0	36273	18779	1629
0	36279	18779	1619
0	36285	18779	1609
0	36291	18779	1599
0	36297	18779	1589
0	36303	18779	1579
0	36309	18779	1569
0	36315	18779	1559
0	36321	18779	1549
0	36327	18779	1539
0	36333	18779	1529
0	36339	18779	1519
0	36345	18779	1509
0	36351	18779	1499
0	36357	18779	1489
0	36363	18779	1479
0	36369	18779	1469
0	36375	18779	1459
0	36381	18779	1449
0	36387	18779	1439
0	36393	18779	1429
0	36399	18779	1419
0	36405	18779	1409
0	36411	18779	1399
0	36417	18779	1389
0	36423	18779	1379
0	36429	18779	1369
0	36435	18779	1359
0	36441	18779	1349
0	36447	18779	1339
0	36453	18779	1329
0	36459	18779	1319
0	36465	18779	1309
0	36471	18779	1299
0	36477	18779	1289
0	36483	18779	1279
0	36489	18779	1269
0	36495	18779	1259
0	36501	18779	1249
0	36507	18779	1239
0	36513	18779	1229
0	36519	18779	1219
0	36525	18779	1209
0	36531	18779	1199
0	36537	18779	1189
0	36543	18779	1179
0	36549	18779	1169
0	36555	18779	1159
0	36561	18779	1149
0	36567	18779	1139
0	36573	18779	1129
0	36579	18779	1119
0	36585	18779	1109
0	36591	18779	1099
0	36597	18779	1089
0	36603	18779	1079
0	36609	18779	1069
0	36615	18779	1059
0	36621	18779	1049
0	36627	18779	1039
0	36633	18779	1029
0	36639	18779	1019
0	36645	18779	1009
0	36651	18779	999
0	36657	18779	989
0	36663	18779	979
0	36669	18779	969
0	36675	18779	959
0	36681	18779	949
0	36687	18779	939
0	36693	18779	929
0	36699	18779	919
0	36705	18779	909
0	36711	18779	899
0	36717	18779	889
0	36723	18779	879
0	36729	18779	869
0	36735	18779	859
0	36741	18779	849
0	36747	18779	839
0	36753	18779	829
0	36759	18779	819
0	36765	18779	809
0	36776	18788	808
0	36788	18798	808
0	36800	18808	808
0	36812	18818	808
0	36826	18828	808
0	36838	18838	808
0	36850	18848	808
0	36862	18858	808
0	36874	18868	808
0	36886	18878	808
0	36898	18888	808
0	36910	18898	808
0	36922	18908	808
0	36934	18918	808
0	36946	18928	808
0	36958	18938	808
0	36970	18948	808
0	36982	18958	808
0	42606	22489	879
0	42612	22489	869
0	42618	22489	859
0	42624	22489	849
0	42630	22489	839
0	42636	22489	829
0	42642	22489	819
0	42648	22489	809
0	42667	22498	808
0	42686	22508	808
0	42705	22518	808
0	42724	22528	808
0	42743	22538	808
0	42762	22548	808
0	42781	22558	808
0	42801	22568	808
0	42820	22578	808
0	42839	22588	808
0	42858	22598	808
0	42877	22608	808
0	42896	22618	808
0	42915	22628	808
0	42934	22638	808
0	42953	22648	808
0	42972	22658	808
0	42991	22668	808
0	46060	24907	1797
0	46067	24907	1787
0	46073	24907	1777
0	46079	24907	1767
0	46085	24907	1757
0	46091	24907	1747
0	46097	24907	1737
0	46103	24907	1727
0	46109	24907	1717
0	46115	24907	1707
0	46121	24907	1697
0	46127	24907	1687
0	46133	24907	1677
0	46139	24907	1667
0	46145	24907	1657
0	46151	24907	1647
0	46157	24907	1637
0	46163	24907	1627
0	46169	24907	1617
0	46175	24907	1607
0	46181	24907	1597
0	46187	24907	1587
0	46193	24907	1577
0	46199	24907	1567
0	46205	24907	1557
0	46211	24907	1547
0	46217	24907	1537
0	46223	24907	1527
0	46229	24907	1517
0	46235	24907	1507
0	46241	24907	1497
0	46247	24907	1487
0	46253	24907	1477
0	46259	24907	1467
0	46265	24907	1457
0	46271	24907	1447
0	46277	24907	1437
0	46283	24907	1427
0	46289	24907	1417
0	46295	24907	1407
0	46301	24907	1397
0	46307	24907	1387
0	46313	24907	1377
0	46319	24907	1367
0	46325	24907	1357
0	46331	24907	1347
0	46337	24907	1337
0	46343	24907	1327
0	46349	24907	1317
0	46355	24907	1307
0	46361	24907	1297
0	46367	24907	1287
0	46373	24907	1277
0	46379	24907	1267
0	46385	24907	1257
0	46391	24907	1247
0	46397	24907	1237
0	46403	24907	1227
0	46409	24907	1217
0	46415	24907	1207
0	46421	24907	1197
0	46427	24907	1187
0	46433	24907	1177
0	46439	24907	1167
0	46445	24907	1157
0	46451	24907	1147
0	46457	24907	1137
0	46463	24907	1127
0	46469	24907	1117
0	46475	24907	1107
0	46481	24907	1097
0	46487	24907	1087
0	46493	24907	1077
0	46499	24907	1067
0	46505	24907	1057
0	46511	24907	1047
0	46517	24907	1037
0	46523	24907	1027
0	46529	24907	1017
0	46535	24907	1007
0	46541	24907	997
0	46547	24907	987
0	46553	24907	977
0	46559	24907	967
0	46565	24907	957
0	46571	24907	947
0	46577	24907	937
0	46583	24907	927
0	46589	24907	917
0	46595	24907	907
0	46601	24907	897
0	46607	24907	887
0	46613	24907	877
0	46619	24907	867
0	46625	24907	857
0	46631	24907	847
0	46637	24907	837
0	46643	24907	827
0	46667	24914	824
0	46693	24924	824
0	46717	24934	824
0	46740	24944	824
0	46763	24954	824
0	46786	24964	824
0	46809	24974	824
0	46832	24984	824
0	46855	24994	824
0	46878	25004	824
0	46901	25014	824
0	46924	25024	824
0	46947	25034	824
0	46970	25044	824
0	46993	25054	824
0	47016	25064	824
0	47039	25074	824
0	47062	25084	824
0	47085	25094	824
0	47108	25104	824
0	47131	25114	824
0	47154	25124	824
0	47177	25134	824
0	47200	25144	824
0	47223	25154	824
0	47246	25164	824
0	47269	25174	824
0	47292	25184	824
0	47315	25194	824
0	47338	25204	824
0	47362	25214	824
0	47385	25224	824
0	49121	26094	1684
0	49127	26094	1674
0	49133	26094	1664
0	49139	26094	1654
0	49145	26094	1644
0	49151	26094	1634
0	49157	26094	1624
0	49163	26094	1614
0	49169	26094	1604
0	49175	26094	1594
0	49181	26094	1584
0	49187	26094	1574
0	49193	26094	1564
0	49199	26094	1554
0	49205	26094	1544
0	49211	26094	1534
0	49217	26094	1524
0	49223	26094	1514
0	49229	26094	1504
0	49235	26094	1494
0	49241	26094	1484
0	49247	26094	1474
0	49253	26094	1464
0	49259	26094	1454
0	49265	26094	1444
0	49271	26094	1434
0	49277	26094	1424
0	49283	26094	1414
0	49289	26094	1404
0	49295	26094	1394
0	49301	26094	1384
0	49307	26094	1374
0	49313	26094	1364
0	49319	26094	1354
0	49325	26094	1344
0	49331	26094	1334
0	49337	26094	1324
0	49343	26094	1314
0	49349	26094	1304
0	49355	26094	1294
0	49361	26094	1284
0	49367	26094	1274
0	49373	26094	1264
0	49379	26094	1254
0	49385	26094	1244
0	49391	26094	1234
0	49397	26094	1224
0	49403	26094	1214
0	49409	26094	1204
0	49415	26094	1194
0	49421	26094	1184
0	49427	26094	1174
0	49433	26094	1164
0	49439	26094	1154
0	49445	26094	1144
0	49451	26094	1134
0	49457	26094	1124
0	49463	26094	1114
0	49469	26094	1104
0	49475	26094	1094
0	49481	26094	1084
0	49487	26094	1074
0	49493	26094	1064
0	49499	26094	1054
0	49505	26094	1044
0	49511	26094	1034
0	49517	26094	1024
0	49523	26094	1014
0	49529	26094	1004
0	49535	26094	994
0	49541	26094	984
0	49547	26094	974
0	49553	26094	964
0	49559	26094	954
0	49565	26094	944
0	49571	26094	934
0	49577	26094	924
0	49583	26094	914
0	49589	26094	904
0	49595	26094	894
0	49601	26094	884
0	49607	26094	874
0	49613	26094	864
0	49619	26094	854
0	49643	26104	854
0	49667	26114	854
0	49691	26124	854
0	49715	26134	854
0	49739	26144	854
0	49763	26154	854
0	49787	26164	854
0	49811	26174	854
0	49835	26184	854
0	49859	26194	854
0	49883	26204	854
0	49907	26214	854
0	49933	26224	854
0	49957	26234	854
0	49981	26244	854
0	50005	26254	854
0	50029	26264	854
0	50053	26274	854
0	50077	26284	854
0	50101	26294	854
0	50125	26304	854
0	50149	26314	854
0	50173	26324	854
0	50198	26334	854
0	50222	26344	854
0	50246	26354	854
0	50270	26364	854
0	50294	26374	854
0	50318	26384	854
0	50342	26394	854
0	50366	26404	854
0	50390	26414	854
0	50414	26424	854
0	50438	26434	854
0	50462	26444	854
0	50486	26454	854
0	50510	26464	854
0	50536	26474	854
0	50561	26484	854
0	50586	26494	854
0	50611	26504	854
0	50636	26514	854
0	50661	26524	854
0	50686	26534	854
0	50711	26544	854
0	50736	26554	854
0	50761	26564	854
0	50786	26574	854
0	50811	26584	854
0	50836	26594	854
0	50861	26604	854
0	50886	26614	854
0	50911	26624	854
0	50936	26634	854
0	50961	26644	854
0	50986	26654	854
0	51011	26664	854
0	51036	26674	854
0	51061	26684	854
0	51086	26694	854
0	51111	26704	854
0	51138	26714	854
0	51163	26724	854
0	51188	26734	854
0	51213	26744	854
0	51238	26754	854
0	51263	26764	854
0	51288	26774	854
0	51313	26784	854
0	51338	26794	854
0	51363	26804	854
0	51391	26814	854
0	51417	26824	854
0	51444	26834	854
0	51470	26844	854
0	51496	26854	854
0	51522	26864	854
0	51548	26874	854
0	51574	26884	854
0	51600	26894	854
0	51626	26904	854
0	51652	26914	854
0	51678	26924	854
0	51704	26934	854
0	51730	26944	854
0	51756	26954	854
0	51782	26964	854
0	51808	26974	854
0	51834	26984	854
0	51860	26994	854
0	51886	27004	854
0	51912	27014	854
0	51938	27024	854
0	51964	27034	854
0	51990	27044	854
0	52016	27054	854
0	52042	27064	854
0	52068	27074	854
0	52094	27084	854
0	52120	27094	854
0	52146	27104	854
0	52172	27114	854
0	52198	27124	854
0	52224	27134	854
0	52250	27144	854
0	52277	27154	854
0	52302	27164	854
0	52327	27174	854
0	52352	27184	854
0	52377	27194	854
0	52402	27204	854
0	52427	27214	854
0	52452	27224	854
0	52477	27234	854
0	52502	27244	854
0	52527	27254	854
0	52552	27264	854
0	52577	27274	854
0	52602	27284	854
0	52627	27294	854
0	52652	27304	854
0	52677	27314	854
0	52702	27324	854
0	52727	27334	854
0	52752	27344	854
0	52777	27354	854
0	52802	27364	854
0	52827	27374	854
0	52852	27384	854
0	52877	27394	854
0	52899	27404	854
0	52920	27414	854
0	52941	27424	854
0	52962	27434	854
0	52983	27444	854
0	53004	27454	854
0	53025	27464	854
0	53046	27474	854
0	53067	27484	854
0	53088	27494	854
0	53109	27504	854
0	53130	27514	854
0	53151	27524	854
0	53172	27534	854
0	53193	27544	854
0	53214	27554	854
0	53236	27564	854
0	53256	27574	854
0	53276	27584	854
0	53296	27594	854
0	53316	27604	854
0	53336	27614	854
0	53356	27624	854
0	53376	27634	854
0	53396	27644	854
0	53419	27654	854
0	53438	27664	854
0	53459	27674	854
0	53479	27684	854
0	53499	27694	854
0	53519	27704	854
0	53539	27714	854
0	53559	27724	854
0	53579	27734	854
0	53599	27744	854
0	53619	27754	854
0	53640	27764	854
0	53652	27774	854
0	53664	27784	854
0	53676	27794	854
0	53688	27804	854
0	53700	27814	854
0	53712	27824	854
0	53724	27834	854
0	53736	27844	854
0	53748	27854	854
0	53760	27864	854
0	53772	27874	854
0	53784	27884	854
0	53796	27894	854
0	53808	27904	854
0	53820	27914	854
0	53832	27924	854
0	53844	27934	854
0	53856	27944	854
0	53868	27954	854
0	53880	27964	854
0	53892	27974	854
0	53904	27984	854
0	53916	27994	854
0	53928	28004	854
0	53940	28014	854
0	53952	28024	854
0	53964	28034	854
0	53976	28044	854
0	53988	28054	854
0	54000	28064	854
0	54012	28074	854
0	54024	28084	854
0	54036	28094	854
0	54048	28104	854
0	54060	28114	854
0	54072	28124	854
0	54084	28134	854
0	54096	28144	854
0	54108	28154	854
0	54120	28164	854
0	54132	28174	854
0	54144	28184	854
0	54156	28194	854
0	54168	28204	854
0	54180	28214	854
0	54192	28224	854
0	54206	28234	854
0	54219	28244	854
0	59090	32336	1466
0	59098	32336	1456
0	59104	32336	1446
0	59110	32336	1436
0	59116	32336	1426
0	59122	32336	1416
0	59128	32336	1406
0	59134	32336	1396
0	59140	32336	1386
0	59146	32336	1376
0	59152	32336	1366
0	59158	32336	1356
0	59164	32336	1346
0	59170	32336	1336
0	59176	32336	1326
0	59182	32336	1316
0	59188	32336	1306
0	59194	32336	1296
0	59200	32336	1286
0	59206	32336	1276
0	59212	32336	1266
0	59218	32336	1256
0	59224	32336	1246
0	59230	32336	1236
0	59236	32336	1226
0	59242	32336	1216
0	59248	32336	1206
0	59254	32336	1196
0	59260	32336	1186
0	59266	32336	1176
0	59272	32336	1166
0	59278	32336	1156
0	59284	32336	1146
0	59290	32336	1136
0	59296	32336	1126
0	59302	32336	1116
0	59308	32336	1106
0	59314	32336	1096
0	59320	32336	1086
0	59326	32336	1076
0	59332	32336	1066
0	59338	32336	1056
0	59344	32336	1046
0	59350	32336	1036
0	59356	32336	1026
0	59362	32336	1016
0	59368	32336	1006
0	59374	32336	996
0	59380	32336	986
0	59386	32336	976
0	59392	32336	966
0	59398	32336	956
0	59404	32336	946
0	59410	32336	936
0	59416	32336	926
0	59422	32336	916
0	59428	32336	906
0	59434	32336	896
0	59440	32336	886
0	59446	32336	876
0	59452	32336	866
0	59458	32336	856
0	59464	32336	846
0	59470	32336	836
0	59476	32336	826
0	59482	32336	816
0	59491	32338	808
0	59505	32348	808
0	59519	32358	808
0	59533	32368	808
0	59547	32378	808
0	59579	32388	808
0	59610	32398	808
0	59641	32408	808
0	59672	32418	808
0	59703	32428	808
0	59734	32438	808
0	59765	32448	808
0	59796	32458	808
0	59827	32468	808
0	59858	32478	808
0	59889	32488	808
0	59920	32498	808
0	59951	32508	808
0	59982	32518	808
0	60013	32528	808
0	60044	32538	808
0	60075	32548	808
0	60106	32558	808
0	60137	32568	808
0	60168	32578	808
0	60199	32588	808
0	60230	32598	808
0	60261	32608	808
0	60541	33188	808
0	60555	33198	808
0	60569	33208	808
0	60583	33218	808
0	60597	33228	808
0	60611	33238	808
0	60625	33248	808
0	60639	33258	808
0	60653	33268	808
0	60667	33278	808
0	60683	33288	808
0	60697	33298	808
0	60711	33308	808
0	60725	33318	808
0	60739	33328	808
0	60753	33338	808
0	60767	33348	808
0	60781	33358	808
0	60795	33368	808
0	60809	33378	808
0	60823	33388	808
0	60837	33398	808
0	60851	33408	808
0	60865	33418	808
0	60879	33428	808
0	60893	33438	808
0	66861	36844	854
0	66889	36854	854
0	66917	36864	854
0	66945	36874	854
0	66973	36884	854
0	67001	36894	854
0	67029	36904	854
0	67057	36914	854
0	67085	36924	854
0	67113	36934	854
0	67141	36944	854
0	67169	36954	854
0	67197	36964	854
0	67225	36974	854
0	67253	36984	854
0	67281	36994	854
0	67309	37004	854
0	67337	37014	854
0	67365	37024	854
0	67393	37034	854
0	67421	37044	854
0	67449	37054	854
0	67477	37064	854
0	67505	37074	854
0	67533	37084	854
0	67564	37094	854
0	67592	37104	854
0	67620	37114	854
0	67648	37124	854
0	67676	37134	854
0	67704	37144	854
0	67732	37154	854
0	67760	37164	854
0	67788	37174	854
0	67816	37184	854
0	67844	37194	854
0	67872	37204	854
0	67900	37214	854
0	67928	37224	854
0	67956	37234	854
0	67984	37244	854
0	68012	37254	854
0	68040	37264	854
0	68068	37274	854
0	68096	37284	854
0	68124	37294	854
0	68152	37304	854
0	68180	37314	854
0	68208	37324	854
0	68238	37334	854
0	68266	37344	854
0	68294	37354	854
0	68322	37364	854
0	68350	37374	854
0	68378	37384	854
0	68406	37394	854
0	68434	37404	854
0	68462	37414	854
0	68490	37424	854
0	68518	37434	854
0	68546	37444	854
0	68574	37454	854
0	68602	37464	854
0	68630	37474	854
0	68658	37484	854
0	68686	37494	854
0	68714	37504	854
0	68742	37514	854
0	68770	37524	854
0	68798	37534	854
0	68826	37544	854
0	68854	37554	854
0	68882	37564	854
0	68910	37574	854
0	68938	37584	854
0	68966	37594	854
0	68994	37604	854
0	69022	37614	854
0	69050	37624	854
0	69078	37634	854
0	69106	37644	854
0	69134	37654	854
0	69167	37664	854
0	69200	37674	854
0	69233	37684	854
0	69266	37694	854
0	77494	41134	2154
0	77501	41134	2144
0	77507	41134	2134
0	77513	41134	2124
0	77519	41134	2114
0	77525	41134	2104
0	77531	41134	2094
0	77537	41134	2084
0	77543	41134	2074
0	77549	41134	2064
0	77555	41134	2054
0	77561	41134	2044
0	77567	41134	2034
0	77573	41134	2024
0	77579	41134	2014
0	77585	41134	2004
0	77591	41134	1994
0	77597	41134	1984
0	77603	41134	1974
0	77609	41134	1964
0	77615	41134	1954
0	77621	41134	1944
0	77627	41134	1934
0	77633	41134	1924
0	77639	41134	1914
0	77645	41134	1904
0	77651	41134	1894
0	77657	41134	1884
0	77663	41134	1874
0	77669	41134	1864
0	77675	41134	1854
0	77681	41134	1844
0	77687	41134	1834
0	77693	41134	1824
0	77699	41134	1814
0	77705	41134	1804
0	77711	41134	1794
0	77717	41134	1784
0	77723	41134	1774
0	77729	41134	1764
0	77735	41134	1754
0	77741	41134	1744
0	77747	41134	1734
0	77753	41134	1724
0	77759	41134	1714
0	77765	41134	1704
0	77771	41134	1694
0	77777	41134	1684
0	77783	41134	1674
0	77789	41134	1664
0	77795	41134	1654
0	77801	41134	1644
0	77807	41134	1634
0	77813	41134	1624
0	77819	41134	1614
0	77825	41134	1604
0	77831	41134	1594
0	77837	41134	1584
0	77843	41134	1574
0	77849	41134	1564
0	77855	41134	1554
0	77861	41134	1544
0	77867	41134	1534
0	77873	41134	1524
0	77879	41134	1514
0	77885	41134	1504
0	77891	41134	1494
0	77897	41134	1484
0	77903	41134	1474
0	77909	41134	1464
0	77915	41134	1454
0	77921	41134	1444
0	77927	41134	1434
0	77933	41134	1424
0	77939	41134	1414
0	77945	41134	1404
0	77951	41134	1394
0	77957	41134	1384
0	77963	41134	1374
0	77969	41134	1364
0	77975	41134	1354
0	77981	41134	1344
0	77987	41134	1334
0	77993	41134	1324
0	77999	41134	1314
0	78005	41134	1304
0	78011	41134	1294
0	78017	41134	1284
0	78023	41134	1274
0	78029	41134	1264
0	78035	41134	1254
0	78041	41134	1244
0	78047	41134	1234
0	78053	41134	1224
0	78059	41134	1214
0	78065	41134	1204
0	78071	41134	1194
0	78077	41134	1184
0	78083	41134	1174
0	78089	41134	1164
0	78095	41134	1154
0	78101	41134	1144
0	78107	41134	1134
0	78113	41134	1124
0	78119	41134	1114
0	78125	41134	1104
0	78131	41134	1094
0	78137	41134	1084
0	78143	41134	1074
0	78149	41134	1064
0	78155	41134	1054
0	78161	41134	1044
0	78167	41134	1034
0	78173	41134	1024
0	78179	41134	1014
0	78185	41134	1004
0	78191	41134	994
0	78197	41134	984
0	78203	41134	974
0	78209	41134	964
0	78215	41134	954
0	78221	41134	944
0	78227	41134	934
0	78233	41134	924
0	78239	41134	914
0	78245	41134	904
0	78251	41134	894
0	78257	41134	884
0	78263	41134	874
0	78269	41134	864
0	78275	41134	854
0	78281	41134	844
0	78287	41134	834
0	78293	41134	824
0	78306	41144	824
0	78320	41154	824
0	78336	41164	824
0	78350	41174	824
0	78364	41184	824
0	78378	41194	824
0	78392	41204	824
0	78406	41214	824
0	78420	41224	824
0	78434	41234	824
0	78448	41244	824
0	78462	41254	824
0	78476	41264	824
0	78490	41274	824
0	83298	44975	4195
0	83312	44975	4185
0	83326	44975	4175
0	83337	44975	4165
0	83351	44975	4155
0	83362	44975	4145
0	83376	44975	4135
0	83387	44975	4125
0	83401	44975	4115
0	83412	44975	4105
0	83426	44975	4095
0	83437	44975	4085
0	83451	44975	4075
0	83462	44975	4065
0	83476	44975	4055
0	83487	44975	4045
0	83501	44975	4035
0	83512	44975	4025
0	83526	44975	4015
0	83537	44975	4005
0	83551	44975	3995
0	83562	44975	3985
0	83576	44975	3975
0	83587	44975	3965
0	83601	44975	3955
0	83612	44975	3945
0	83626	44975	2945
0	83637	44975	2935
0	83651	44975	2925
0	83662	44975	2915
0	83676	44975	2905
0	83687	44975	2895
0	83701	44975	2885
0	83712	44975	2875
0	83726	44975	2865
0	83737	44975	2855
0	83751	44975	2845
0	83762	44975	2835
0	83776	44975	2825
0	83787	44975	2815
0	83801	44975	2805
0	83812	44975	2795
0	83826	44975	2785
0	83837	44975	2775
0	83851	44975	2765
0	83862	44975	2755
0	83876	44975	2745
0	83887	44975	2735
0	83901	44975	2725
0	83912	44975	2715
0	83926	44975	2705
0	83937	44975	2695
0	83951	44975	2685
0	83962	44975	2675
0	83976	44975	2665
0	83987	44975	2655
0	84001	44975	2645
0	84012	44975	2635
0	84026	44975	2625
0	84037	44975	2615
0	84051	44975	2605
0	84062	44975	2595
0	84076	44975	2585
0	84087	44975	2575
0	84101	44975	2565
0	84112	44975	2555
0	84126	44975	2545
0	84137	44975	2535
0	84151	44975	2525
0	84162	44975	2515
0	84176	44975	2505
0	84187	44975	2495
0	84201	44975	2485
0	84212	44975	2475
0	84226	44975	2465
0	84237	44975	2455
0	84251	44975	2445
0	84262	44975	2435
0	84276	44975	2425
0	84287	44975	2415
0	84301	44975	2405
0	84312	44975	2395
0	84326	44975	2385
0	84337	44975	2375
0	84351	44975	2365
0	84362	44975	2355
0	84376	44975	2345
0	84387	44975	2335
0	84401	44975	2325
0	84412	44975	2315
0	84426	44975	2305
0	84437	44975	2295
0	84451	44975	2285
0	84462	44975	2275
0	84476	44975	2265
0	84487	44975	2255
0	84501	44975	2245
0	84512	44975	2235
0	84526	44975	2225
0	84537	44975	2215
0	84551	44975	2205
0	84562	44975	2195
0	84576	44975	2185
0	84587	44975	2175
0	84601	44975	2165
0	84612	44975	2155
0	84626	44975	2145
0	84637	44975	2135
0	84651	44975	2125
0	84662	44975	2115
0	84676	44975	2105
0	84687	44975	2095
0	84701	44975	2085
0	84712	44975	2075
0	84726	44975	2065
0	84737	44975	2055
0	84751	44975	2045
0	84762	44975	2035
0	84776	44975	2025
0	84787	44975	2015
0	84801	44975	2005
0	84812	44975	1995
0	84826	44975	1985
0	84837	44975	1975
0	84851	44975	1965
0	84862	44975	1955
0	84876	44975	1945
0	84887	44975	1935
0	84901	44975	1925
0	84912	44975	1915
0	84926	44975	1905
0	84937	44975	1895
0	84951	44975	1885
0	84962	44975	1875
0	84976	44975	1865
0	84987	44975	1855
0	85001	44975	1845
0	85012	44975	1835
0	85026	44975	1825
0	85037	44975	1815
0	85051	44975	1805
0	85062	44975	1795
0	85076	44975	1785
0	85087	44975	1775
0	85101	44975	1765
0	85112	44975	1755
0	85126	44975	1745
0	85137	44975	1735
0	85151	44975	1725
0	85162	44975	1715
0	85176	44975	1705
0	85187	44975	1695
0	85201	44975	1685
0	85212	44975	1675
0	85226	44975	1665
0	85237	44975	1655
0	85251	44975	1645
0	85262	44975	1635
0	85276	44975	1625
0	85287	44975	1615
0	85301	44975	1605
0	85312	44975	1595
0	85326	44975	1585
0	85337	44975	1575
0	85351	44975	1565
0	85362	44975	1555
0	85376	44975	1545
0	85387	44975	1535
0	85401	44975	1525
0	85412	44975	1515
0	85426	44975	1505
0	85437	44975	1495
0	85451	44975	1485
0	85462	44975	1475
0	85476	44975	1465
0	85487	44975	1455
0	85501	44975	1445
0	85512	44975	1435
0	85526	44975	1425
0	85537	44975	1415
0	85551	44975	1405
0	85562	44975	1395
0	85576	44975	1385
0	85587	44975	1375
0	85601	44975	1365
0	85612	44975	1355
0	85626	44975	1345
0	85637	44975	1335
0	85651	44975	1325
0	85662	44975	1315
0	85676	44975	1305
0	85687	44975	1295
0	85701	44975	1285
0	85712	44975	1275
0	85726	44975	1265
0	85737	44975	1255
0	85751	44975	1245
0	85762	44975	1235
0	85776	44975	1225
0	85787	44975	1215
0	85801	44975	1205
0	85812	44975	1195
0	85826	44975	1185
0	85837	44975	1175
0	85851	44975	1165
0	85862	44975	1155
0	85876	44975	1145
0	85887	44975	1135
0	85901	44975	1125
0	85912	44975	1115
0	85926	44975	1105
0	85937	44975	1095
0	85951	44975	1085
0	85962	44975	1075
0	85976	44975	1065
0	85987	44975	1055
0	86001	44975	1045
0	86012	44975	1035
0	86026	44975	1025
0	86037	44975	1015
0	86051	44975	1005
0	86062	44975	995
0	86076	44975	985
0	86087	44975	975
0	86101	44975	965
0	86112	44975	955
0	86126	44975	945
0	86137	44975	935
0	86151	44975	925
0	86162	44975	915
0	86176	44975	905
0	86187	44975	895
0	86201	44975	885
0	86212	44975	875
0	86226	44975	865
0	86237	44975	855
0	86251	44975	845
0	86262	44975	835
0	86276	44975	825
0	86283	44975	815
0	86301	44978	808
0	86337	44988	808
0	86373	44998	808
0	86409	45008	808
0	86445	45018	808
0	86481	45028	808
0	86517	45038	808
0	86553	45048	808
0	86589	45058	808
0	86626	45068	808
0	86662	45078	808
0	86698	45088	808
0	86735	45098	808
0	86768	45108	808
0	86801	45118	808
0	86834	45128	808
0	86867	45138	808
0	86903	45148	808
0	86940	45158	808
0	86975	45168	808
0	87010	45178	808
0	87045	45188	808
0	87083	45198	808
0	87119	45208	808
0	87155	45218	808
0	87191	45228	808
0	87221	45238	808
0	87248	45248	808
0	87275	45258	808
0	87302	45268	808
0	87329	45278	808
0	87356	45288	808
0	87383	45298	808
0	87410	45308	808
0	87437	45318	808
0	87464	45328	808
0	87491	45338	808
0	87518	45348	808
0	87545	45358	808
0	87572	45368	808
0	87599	45378	808
0	87626	45388	808
0	87653	45398	808
0	87680	45408	808
0	87708	45418	808
0	87734	45428	808
0	87760	45438	808
0	87786	45448	808
0	87812	45458	808
0	87838	45468	808
0	87864	45478	808
0	87890	45488	808
0	87916	45498	808
0	87942	45508	808
0	87968	45518	808
0	87996	45528	808
0	88023	45538	808
0	88050	45548	808
0	88077	45558	808
0	88104	45568	808
0	88131	45578	808
0	88158	45588	808
0	88185	45598	808
0	88212	45608	808
0	88239	45618	808
0	88266	45628	808
0	88293	45638	808
0	88320	45648	808
0	88347	45658	808
0	88374	45668	808
0	88401	45678	808
0	88428	45688	808
0	88455	45698	808
0	88482	45708	808
0	88509	45718	808
0	88536	45728	808
0	88563	45738	808
0	88590	45748	808
0	88617	45758	808
0	88644	45768	808
0	88671	45778	808
0	88698	45788	808
0	88725	45798	808
0	88752	45808	808
0	88779	45818	808
0	88806	45828	808
0	88833	45838	808
0	88860	45848	808
0	88887	45858	808
0	88914	45868	808
0	88941	45878	808
0	88968	45888	808
0	88995	45898	808
0	92071	47518	808
0	92107	47528	808
0	92143	47538	808
0	92179	47548	808
0	92215	47558	808
0	92251	47568	808
0	92287	47578	808
0	92323	47588	808
0	92359	47598	808
0	92395	47608	808
0	92431	47618	808
0	92467	47628	808
0	92505	47638	808
0	92542	47648	808
0	92578	47658	808
0	92614	47668	808
0	92650	47678	808
0	92686	47688	808
0	92723	47698	808
0	92758	47708	808
0	92793	47718	808
0	92828	47728	808
0	92863	47738	808
0	92898	47748	808
0	92933	47758	808
0	92968	47768	808
0	93003	47778	808
0	93040	47788	808
0	93076	47798	808
0	93112	47808	808
0	93148	47818	808
0	93184	47828	808
0	93220	47838	808
0	93256	47848	808
0	93292	47858	808
0	93328	47868	808
0	93365	47878	808
0	93392	47888	808
0	93419	47898	808
0	93446	47908	808
0	93473	47918	808
0	97338	51428	808
0	97351	51438	808
0	97363	51448	808
0	97375	51458	808
0	97387	51468	808
0	97399	51478	808
0	97412	51488	808
0	97424	51498	808
0	97436	51508	808
0	97448	51518	808
0	97460	51528	808
0	97472	51538	808
0	97484	51548	808
0	97496	51558	808
0	97508	51568	808
0	97520	51578	808
0	97532	51588	808
0	97544	51598	808
0	97556	51608	808
0	97568	51618	808
0	97580	51628	808
0	97592	51638	808
0	97604	51648	808
0	97616	51658	808
0	97628	51668	808
0	97640	51678	808
0	97652	51688	808
0	97664	51698	808
0	97676	51708	808
0	97688	51718	808
0	97700	51728	808
0	97712	51738	808
0	97724	51748	808
0	97736	51758	808
0	97748	51768	808
0	97760	51778	808
0	97772	51788	808
0	97784	51798	808
0	97796	51808	808
0	97808	51818	808
0	97820	51828	808
0	108952	62131	3541
0	108958	62131	3531
0	108964	62131	3521
0	108970	62131	3511
0	108976	62131	3501
0	108982	62131	3491
0	108988	62131	3481
0	108994	62131	3471
0	109000	62131	3461
0	109006	62131	3451
0	109012	62131	3441
0	109018	62131	3431
0	109024	62131	3421
0	109030	62131	3411
0	109036	62131	3401
0	109042	62131	3391
0	109048	62131	3381
0	109054	62131	3371
0	109060	62131	3361
0	109066	62131	3351
0	109072	62131	3341
0	109078	62131	3331
0	109084	62131	3321
0	109090	62131	3311
0	109096	62131	3301
0	109102	62131	3291
0	109108	62131	3281
0	109114	62131	3271
0	109120	62131	3261
0	110756	62788	1798
0	110763	62788	1788
0	110769	62788	1778
0	110775	62788	1768
0	110781	62788	1758
0	110787	62788	1748
0	110793	62788	1738
0	110799	62788	1728
0	110805	62788	1718
0	110811	62788	1708
0	110817	62788	1698
0	110823	62788	1688
0	110829	62788	1678
0	110835	62788	1668
0	110841	62788	1658
0	110847	62788	1648
0	110853	62788	1638
0	110859	62788	1628
0	110865	62788	1618
0	110871	62788	1608
0	110877	62788	1598
0	110883	62788	1588
0	110889	62788	1578
0	110895	62788	1568
0	110901	62788	1558
0	110907	62788	1548
0	110913	62788	1538
0	110919	62788	1528
0	110925	62788	1518
0	110931	62788	1508
0	110937	62788	1498
0	110943	62788	1488
0	110949	62788	1478
0	110955	62788	1468
0	110961	62788	1458
0	110967	62788	1448
0	110973	62788	1438
0	110979	62788	1428
0	110985	62788	1418
0	110991	62788	1408
0	110997	62788	1398
0	111003	62788	1388
0	111009	62788	1378
0	111015	62788	1368
0	111021	62788	1358
0	111027	62788	1348
0	111033	62788	1338
0	111039	62788	1328
0	111045	62788	1318
0	111051	62788	1308
0	111057	62788	1298
0	111063	62788	1288
0	111069	62788	1278
0	111075	62788	1268
0	111081	62788	1258
0	111087	62788	1248
0	111093	62788	1238
0	111099	62788	1228
0	111105	62788	1218
0	111111	62788	1208
0	111117	62788	1198
0	111123	62788	1188
0	111129	62788	1178
0	111135	62788	1168
0	111141	62788	1158
0	111147	62788	1148
0	111153	62788	1138
0	111159	62788	1128
0	111165	62788	1118
0	111171	62788	1108
0	111177	62788	1098
0	111183	62788	1088
0	111189	62788	1078
0	111195	62788	1068
0	111201	62788	1058
0	111207	62788	1048
0	111213	62788	1038
0	111219	62788	1028
0	111225	62788	1018
0	111231	62788	1008
0	111237	62788	998
0	111243	62788	988
0	111249	62788	978
0	111255	62788	968
0	111261	62788	958
0	111267	62788	948
0	111273	62788	938
0	111279	62788	928
0	111285	62788	918
0	111291	62788	908
0	111297	62788	898
0	111303	62788	888
0	111309	62788	878
0	111315	62788	868
0	111321	62788	858
0	111327	62788	848
0	111333	62788	838
0	111339	62788	828
0	111345	62788	818
0	111351	62788	808
0	113252	63608	1618
0	113260	63608	1608
0	113266	63608	1598
0	113272	63608	1588
0	113278	63608	1578
0	113284	63608	1568
0	113290	63608	1558
0	113296	63608	1548
0	113302	63608	1538
0	113308	63608	1528
0	113314	63608	1518
0	113320	63608	1508
0	113326	63608	1498
0	113332	63608	1488
0	113338	63608	1478
0	113344	63608	1468
0	113350	63608	1458
0	113356	63608	1448
0	113362	63608	1438
0	113368	63608	1428
0	113374	63608	1418
0	113380	63608	1408
0	113386	63608	1398
0	113392	63608	1388
0	113398	63608	1378
0	113404	63608	1368
0	113410	63608	1358
0	113416	63608	1348
0	113422	63608	1338
0	113428	63608	1328
0	113434	63608	1318
0	113440	63608	1308
0	113446	63608	1298
0	113452	63608	1288
0	113458	63608	1278
0	113464	63608	1268
0	113470	63608	1258
0	113476	63608	1248
0	113482	63608	1238
0	113488	63608	1228
0	113494	63608	1218
0	113500	63608	1208
0	113506	63608	1198
0	113512	63608	1188
0	113518	63608	1178
0	113524	63608	1168
0	113530	63608	1158
0	113536	63608	1148
0	113542	63608	1138
0	113548	63608	1128
0	113554	63608	1118
0	113560	63608	1108
0	113566	63608	1098
0	113572	63608	1088
0	113578	63608	1078
0	113584	63608	1068
0	113590	63608	1058
0	113596	63608	1048
0	113602	63608	1038
0	113608	63608	1028
0	113614	63608	1018
0	113620	63608	1008
0	113626	63608	998
0	113632	63608	988
0	113638	63608	978
0	113644	63608	968
0	113650	63608	958
0	113656	63608	948
0	113662	63608	938
0	113668	63608	928
0	113674	63608	918
0	113680	63608	908
0	113686	63608	898
0	113692	63608	888
0	113698	63608	878
0	113704	63608	868
0	113710	63608	858
0	113716	63608	848
0	113722	63608	838
0	113728	63608	828
0	113734	63608	818
0	113740	63608	808
0	113754	63618	808
0	113770	63628	808
0	113786	63638	808
0	113802	63648	808
0	113818	63658	808
0	113834	63668	808
0	113850	63678	808
0	113866	63688	808
0	113882	63698	808
0	113898	63708	808
0	113914	63718	808
0	113930	63728	808
0	113946	63738	808
0	113963	63748	808
0	113979	63758	808
0	113995	63768	808
0	114011	63778	808
0	114027	63788	808
0	114044	63798	808
0	114060	63808	808
0	114076	63818	808
0	114092	63828	808
0	114108	63838	808
0	114124	63848	808
0	114142	63858	808
0	114158	63868	808
0	114174	63878	808
0	114190	63888	808
0	114206	63898	808
0	114222	63908	808
0	114238	63918	808
0	114254	63928	808
0	114270	63938	808
0	114286	63948	808
0	114302	63958	808
0	114318	63968	808
0	114334	63978	808
0	114350	63988	808
0	114366	63998	808
0	114382	64008	808
0	114398	64018	808
0	114414	64028	808
0	114430	64038	808
0	114446	64048	808
0	114462	64058	808
0	114478	64068	808
0	114494	64078	808
0	114510	64088	808
0	114526	64098	808
0	114542	64108	808
0	114558	64118	808
0	114574	64128	808
0	114592	64138	808
0	114608	64148	808
0	114624	64158	808
0	114640	64168	808
0	114656	64178	808
0	114672	64188	808
0	114688	64198	808
0	114704	64208	808
0	134644	74074	824
0	134669	74084	824
0	134694	74094	824
0	134719	74104	824
0	134744	74114	824
0	134769	74124	824
0	134794	74134	824
0	134819	74144	824
0	134844	74154	824
0	134869	74164	824
0	134894	74174	824
0	134919	74184	824
0	134944	74194	824
0	134969	74204	824
0	134994	74214	824
0	135019	74224	824
0	135044	74234	824
0	135069	74244	824
0	135094	74254	824
0	135120	74264	824
0	135146	74274	824
0	135170	74284	824
0	135194	74294	824
0	135218	74304	824
0	135242	74314	824
0	135268	74324	824
0	135293	74334	824
0	135318	74344	824
0	135343	74354	824
0	135368	74364	824
0	135393	74374	824
0	135418	74384	824
0	135443	74394	824
0	135470	74404	824
0	135496	74414	824
0	135522	74424	824
0	135548	74434	824
0	135574	74444	824
0	135600	74454	824
0	135626	74464	824
0	135652	74474	824
0	135678	74484	824
0	135704	74494	824
0	135730	74504	824
0	135756	74514	824
0	135782	74524	824
0	135808	74534	824
0	135834	74544	824
0	135860	74554	824
0	135886	74564	824
0	135912	74574	824
0	135938	74584	824
0	135964	74594	824
0	135990	74604	824
0	136016	74614	824
0	136042	74624	824
0	136068	74634	824
0	136094	74644	824
0	136120	74654	824
0	136146	74664	824
0	136172	74674	824
0	136198	74684	824
0	136224	74694	824
0	136250	74704	824
0	136276	74714	824
0	136302	74724	824
0	136328	74734	824
0	136355	74744	824
0	139344	76304	2374
0	139354	76304	2364
0	139360	76304	2354
0	139366	76304	2344
0	139372	76304	2334
0	139378	76304	2324
0	139384	76304	2314
0	139390	76304	2304
0	139396	76304	2294
0	139402	76304	2284
0	139408	76304	2274
0	139414	76304	2264
0	139420	76304	2254
0	139426	76304	2244
0	139432	76304	2234
0	139438	76304	2224
0	139444	76304	2214
0	139450	76304	2204
0	139456	76304	2194
0	139462	76304	2184
0	139468	76304	2174
0	139474	76304	2164
0	139480	76304	2154
0	139486	76304	2144
0	139492	76304	2134
0	139498	76304	2124
0	139504	76304	2114
0	139510	76304	2104
0	139516	76304	2094
0	139522	76304	2084
0	139528	76304	2074
0	139534	76304	2064
0	139540	76304	2054
0	139546	76304	2044
0	139552	76304	2034
0	139558	76304	2024
0	139564	76304	2014
0	139570	76304	2004
0	139576	76304	1994
0	139582	76304	1984
0	139588	76304	1974
0	139594	76304	1964
0	139600	76304	1954
0	139606	76304	1944
0	139612	76304	1934
0	139618	76304	1924
0	139624	76304	1914
0	139630	76304	1904
0	139636	76304	1894
0	139642	76304	1884
0	139648	76304	1874
0	139654	76304	1864
0	139660	76304	1854
0	139666	76304	1844
0	139672	76304	1834
0	139678	76304	1824
0	139684	76304	1814
0	139690	76304	1804
0	139696	76304	1794
0	139702	76304	1784
0	139708	76304	1774
0	139714	76304	1764
0	139720	76304	1754
0	139726	76304	1744
0	139732	76304	1734
0	139738	76304	1724
0	139744	76304	1714
0	139750	76304	1704
0	139756	76304	1694
0	139762	76304	1684
0	139768	76304	1674
0	139774	76304	1664
0	139780	76304	1654
0	139786	76304	1644
0	139792	76304	1634
0	139798	76304	1624
0	139804	76304	1614
0	139810	76304	1604
0	139816	76304	1594
0	139822	76304	1584
0	139828	76304	1574
0	139834	76304	1564
0	139840	76304	1554
0	139846	76304	1544
0	139852	76304	1534
0	139858	76304	1524
0	139864	76304	1514
0	139870	76304	1504
0	139876	76304	1494
0	139882	76304	1484
0	139888	76304	1474
0	139894	76304	1464
0	139900	76304	1454
0	139906	76304	1444
0	139912	76304	1434
0	139918	76304	1424
0	139924	76304	1414
0	139930	76304	1404
0	139936	76304	1394
0	139942	76304	1384
0	139948	76304	1374
0	139954	76304	1364
0	139960	76304	1354
0	139966	76304	1344
0	139972	76304	1334
0	139978	76304	1324
0	139984	76304	1314
0	139990	76304	1304
0	139996	76304	1294
0	140002	76304	1284
0	140008	76304	1274
0	140014	76304	1264
0	140020	76304	1254
0	140026	76304	1244
0	140032	76304	1234
0	140038	76304	1224
0	140044	76304	1214
0	140050	76304	1204
0	140056	76304	1194
0	140062	76304	1184
0	140068	76304	1174
0	140074	76304	1164
0	140080	76304	1154
0	140086	76304	1144
0	140092	76304	1134
0	140098	76304	1124
0	140104	76304	1114
0	140110	76304	1104
0	140116	76304	1094
0	140122	76304	1084
0	140128	76304	1074
0	140134	76304	1064
0	140140	76304	1054
0	140146	76304	1044
0	140152	76304	1034
0	140158	76304	1024
0	140164	76304	1014
0	140170	76304	1004
0	140176	76304	994
0	140182	76304	984
0	140188	76304	974
0	140194	76304	964
0	140200	76304	954
0	140206	76304	944
0	140212	76304	934
0	140218	76304	924
0	140224	76304	914
0	140230	76304	904
0	140236	76304	894
0	140242	76304	884
0	140248	76304	874
0	140254	76304	864
0	140260	76304	854
0	140266	76304	844
0	140272	76304	834
0	140278	76304	824
0	140303	76314	824
0	140332	76324	824
0	140361	76334	824
0	140390	76344	824
0	140419	76354	824
0	140448	76364	824
0	140477	76374	824
0	140506	76384	824
0	140535	76394	824
0	140564	76404	824
0	140595	76414	824
0	140624	76424	824
0	140653	76434	824


