version 2
run General-0-20250118-14:05:02-220213
attr configname General
attr datetime 20250118-14:05:02
attr experiment General
attr inifile shaw_exist.ini
attr iterationvars ""
attr iterationvarsf ""
attr measurement ""
attr network src.dtnsim
attr processid 220213
attr repetition 0
attr replication #0
attr resultdir results
attr runnumber 0
attr seedset 0
param dtnsim.central.contactsFile "\"contactPlan/Contacts.txt\""
param dtnsim.central.contactsFile_A "\"contactPlan/Contacts_A.txt\""
param dtnsim.central.contactsFile_B "\"contactPlan/Contacts_B.txt\""
param dtnsim.central.contactIdsToDelete_from_celestialA "\"31 35 51 61 64 65 67 71 73 92 95 101 104 107 126 135 140 141 146 150 153 160 170 174 200 207 226 234 243 247 281 286 289 292 295 296 302 309 321 323 334 356 361 371 388 393 406 410 422 438 452 468 476\""
param dtnsim.central.contactIdsToDelete_from_celestialB "\"25 33 36 39 49 74 105 106 114 123 129 142 144 148 152 155 162 179 184 186 195 199 206 208 225 236 237 252 255 257 273 274 282 285 304 307 313 328 367 379 430 431 433 448 451 455 466\""
param dtnsim.central.celestialA_nodes "\"1 2 3\""
param dtnsim.central.celestialB_nodes "\"4 5 6\""
param dtnsim.central.locallyfaultsAware true
param dtnsim.central.mode_two_celestial true
param dtnsim.nodesNumber 6
param dtnsim.node[1].icon "\"receiverdish\""
param dtnsim.node[2..5].icon "\"satellite\""
param dtnsim.node[6].icon "\"receiverdish\""
param dtnsim.node[*].dtn.routing "\"cgrModel350\""
param dtnsim.node[*].dtn.routingType "\"routeListType:allPaths-firstEnding,volumeAware:allContacts,extensionBlock:on,contactPlan:global\""
param dtnsim.node[1].app.enable true
param dtnsim.node[1].app.bundlesNumber "\"8000\""
param dtnsim.node[1].app.start "\"0\""
param dtnsim.node[1].app.destinationEid "\"6\""
param dtnsim.node[1].app.size "\"1500\""
param dtnsim.node[1].app.interval 10

vector 0 dtnsim.node[6].app appBundleReceivedDelayvec:vector ETV
attr interpolationmode none
attr source appBundleReceivedDelay
attr title "appBundleReceivedDelayvec, vector"
0	77137	65800	65800
0	77143	65800	65790
0	77149	65800	65780
0	77155	65800	65770
0	77161	65800	65760
0	77167	65800	65750
0	77173	65800	65740
0	77179	65800	65730
0	77185	65800	65720
0	77191	65800	65710
0	77197	65800	65700
0	77203	65800	65690
0	77209	65800	65680
0	77215	65800	65670
0	77221	65800	65660
0	77227	65800	65650
0	77233	65800	65640
0	77239	65800	65630
0	77245	65800	65620
0	77251	65800	65610
0	77257	65800	65600
0	77263	65800	65590
0	77269	65800	65580
0	77275	65800	65570
0	77281	65800	65560
0	77287	65800	65550
0	77293	65800	65540
0	77299	65800	65530
0	77305	65800	65520
0	77311	65800	65510
0	77317	65800	65500
0	77323	65800	65490
0	77329	65800	65480
0	77335	65800	65470
0	77341	65800	65460
0	77347	65800	65450
0	77353	65800	65440
0	77359	65800	65430
0	77365	65800	65420
0	77371	65800	65410
0	77377	65800	65400
0	77383	65800	65390
0	77389	65800	65380
0	77395	65800	65370
0	77401	65800	65360
0	77407	65800	65350
0	77413	65800	65340
0	77419	65800	65330
0	77425	65800	65320
0	77431	65800	65310
0	77437	65800	65300
0	77443	65800	65290
0	77449	65800	65280
0	77455	65800	65270
0	77461	65800	65260
0	77467	65800	65250
0	77473	65800	65240
0	77479	65800	65230
0	77485	65800	65220
0	77491	65800	65210
0	77497	65800	65200
0	77503	65800	65190
0	77509	65800	65180
0	77515	65800	65170
0	77521	65800	65160
0	77527	65800	65150
0	77533	65800	65140
0	77539	65800	65130
0	77545	65800	65120
0	77551	65800	65110
0	77557	65800	65100
0	77563	65800	65090
0	77569	65800	65080
0	77575	65800	65070
0	77581	65800	65060
0	77587	65800	65050
0	77593	65800	65040
0	77599	65800	65030
0	77605	65800	65020
0	77611	65800	65010
0	77617	65800	65000
0	77623	65800	64990
0	77629	65800	64980
0	77635	65800	64970
0	77641	65800	64960
0	77647	65800	64950
0	77653	65800	64940
0	77659	65800	64930
0	77665	65800	64920
0	77671	65800	64910
0	77677	65800	64900
0	77683	65800	64890
0	77689	65800	64880
0	77695	65800	64870
0	77701	65800	64860
0	77707	65800	64850
0	77713	65800	64840
0	77719	65800	64830
0	77725	65800	64820
0	77731	65800	64810
0	77737	65800	64800
0	77743	65800	64790
0	77749	65800	64780
0	77755	65800	64770
0	77761	65800	64760
0	77767	65800	64750
0	77773	65800	64740
0	77779	65800	64730
0	77785	65800	64720
0	77791	65800	64710
0	77797	65800	64700
0	77803	65800	64690
0	77809	65800	64680
0	77815	65800	64670
0	77821	65800	64660
0	77827	65800	64650
0	77833	65800	64640
0	77839	65800	64630
0	77845	65800	64620
0	77851	65800	64610
0	77857	65800	64600
0	77863	65800	64590
0	77869	65800	64580
0	77875	65800	64570
0	77881	65800	64560
0	77887	65800	64550
0	77893	65800	64540
0	77899	65800	64530
0	77905	65800	64520
0	77911	65800	64510
0	77917	65800	64500
0	77923	65800	64490
0	77929	65800	64480
0	77935	65800	64470
0	77941	65800	64460
0	77947	65800	64450
0	77953	65800	64440
0	77959	65800	64430
0	77965	65800	64420
0	77971	65800	64410
0	77977	65800	64400
0	77983	65800	64390
0	77989	65800	64380
0	77995	65800	64370
0	78001	65800	64360
0	78007	65800	64350
0	78013	65800	64340
0	78019	65800	64330
0	78025	65800	64320
0	78031	65800	64310
0	78037	65800	64300
0	78043	65800	64290
0	78049	65800	64280
0	78055	65800	64270
0	78061	65800	64260
0	78067	65800	64250
0	78073	65800	64240
0	78079	65800	64230
0	78085	65800	64220
0	78091	65800	64210
0	78097	65800	64200
0	78103	65800	64190
0	78109	65800	64180
0	78115	65800	64170
0	78121	65800	64160
0	78127	65800	64150
0	78133	65800	64140
0	78139	65800	64130
0	78145	65800	64120
0	78151	65800	64110
0	78157	65800	64100
0	78163	65800	64090
0	78169	65800	64080
0	78175	65800	64070
0	78181	65800	64060
0	78187	65800	64050
0	78193	65800	64040
0	78199	65800	64030
0	78205	65800	64020
0	78211	65800	64010
0	78217	65800	64000
0	78223	65800	63990
0	78229	65800	63980
0	78235	65800	63970
0	78241	65800	63960
0	78247	65800	63950
0	78253	65800	63940
0	78259	65800	63930
0	78265	65800	63920
0	78271	65800	63910
0	78277	65800	63900
0	78283	65800	63890
0	78289	65800	63880
0	78295	65800	63870
0	78301	65800	63860
0	78307	65800	63850
0	78313	65800	63840
0	78319	65800	63830
0	78325	65800	63820
0	78331	65800	63810
0	78337	65800	63800
0	78343	65800	63790
0	78349	65800	63780
0	78355	65800	63770
0	78361	65800	63760
0	78367	65800	63750
0	78373	65800	63740
0	78379	65800	63730
0	78385	65800	63720
0	78391	65800	63710
0	78397	65800	63700
0	78403	65800	63690
0	78409	65800	63680
0	78415	65800	63670
0	78421	65800	63660
0	78427	65800	63650
0	78433	65800	63640
0	78439	65800	63630
0	78445	65800	63620
0	78451	65800	63610
0	78457	65800	63600
0	78463	65800	63590
0	78469	65800	63580
0	78475	65800	63570
0	78481	65800	63560
0	78487	65800	63550
0	78493	65800	63540
0	78499	65800	63530
0	78505	65800	63520
0	78511	65800	63510
0	78517	65800	63500
0	78523	65800	63490
0	78529	65800	63480
0	78535	65800	63470
0	78541	65800	63460
0	78547	65800	63450
0	78553	65800	63440
0	78559	65800	63430
0	78565	65800	63420
0	78571	65800	63410
0	78577	65800	63400
0	78583	65800	63390
0	78589	65800	63380
0	78595	65800	63370
0	78601	65800	63360
0	78607	65800	63350
0	78613	65800	63340
0	78619	65800	63330
0	78625	65800	63320
0	78631	65800	63310
0	78637	65800	63300
0	78643	65800	63290
0	78649	65800	63280
0	78655	65800	63270
0	78661	65800	63260
0	78667	65800	63250
0	78673	65800	63240
0	78679	65800	63230
0	78685	65800	63220
0	78691	65800	63210
0	78697	65800	63200
0	78703	65800	63190
0	78709	65800	63180
0	78715	65800	63170
0	78721	65800	63160
0	78727	65800	63150
0	78733	65800	63140
0	78739	65800	63130
0	78745	65800	63120
0	78751	65800	63110
0	78757	65800	63100
0	78763	65800	63090
0	78769	65800	63080
0	78775	65800	63070
0	78781	65800	63060
0	78787	65800	63050
0	78793	65800	63040
0	78799	65800	63030
0	78805	65800	63020
0	78811	65800	63010
0	78817	65800	63000
0	78823	65800	62990
0	78829	65800	62980
0	78835	65800	62970
0	78841	65800	62960
0	78847	65800	62950
0	78853	65800	62940
0	78859	65800	62930
0	78865	65800	62920
0	78871	65800	62910
0	78877	65800	62900
0	78883	65800	62890
0	78889	65800	62880
0	78895	65800	62870
0	78901	65800	62860
0	78907	65800	62850
0	78913	65800	62840
0	78919	65800	62830
0	78925	65800	62820
0	78931	65800	62810
0	78937	65800	62800
0	78943	65800	62790
0	78949	65800	62780
0	78955	65800	62770
0	78961	65800	62760
0	78967	65800	62750
0	78973	65800	62740
0	78979	65800	62730
0	78985	65800	62720
0	78991	65800	62710
0	78997	65800	62700
0	79003	65800	62690
0	79009	65800	62680
0	79015	65800	62670
0	79021	65800	62660
0	79027	65800	62650
0	79033	65800	62640
0	79039	65800	62630
0	79045	65800	62620
0	79051	65800	62610
0	79057	65800	62600
0	79063	65800	62590
0	79069	65800	62580
0	79075	65800	62570
0	79081	65800	62560
0	79087	65800	62550
0	79093	65800	62540
0	79099	65800	62530
0	79105	65800	62520
0	79111	65800	62510
0	79117	65800	62500
0	79123	65800	62490
0	79129	65800	62480
0	79135	65800	62470
0	79141	65800	62460
0	79147	65800	62450
0	79153	65800	62440
0	79159	65800	62430
0	79165	65800	62420
0	79171	65800	62410
0	79177	65800	62400
0	79183	65800	62390
0	79189	65800	62380
0	79195	65800	62370
0	79201	65800	62360
0	79207	65800	62350
0	79213	65800	62340
0	79219	65800	62330
0	79225	65800	62320
0	79231	65800	62310
0	79237	65800	62300
0	79243	65800	62290
0	79249	65800	62280
0	79255	65800	62270
0	79261	65800	62260
0	79267	65800	62250
0	79273	65800	62240
0	79279	65800	62230
0	79285	65800	62220
0	79291	65800	62210
0	79297	65800	62200
0	79303	65800	62190
0	79309	65800	62180
0	79315	65800	62170
0	79321	65800	62160
0	79327	65800	62150
0	79333	65800	62140
0	79339	65800	62130
0	79345	65800	62120
0	79351	65800	62110
0	79357	65800	62100
0	79363	65800	62090
0	79369	65800	62080
0	79375	65800	62070
0	79381	65800	62060
0	79387	65800	62050
0	79393	65800	62040
0	79399	65800	62030
0	79405	65800	62020
0	79411	65800	62010
0	79417	65800	62000
0	79423	65800	61990
0	79429	65800	61980
0	79435	65800	61970
0	79441	65800	61960
0	79447	65800	61950
0	79453	65800	61940
0	79459	65800	61930
0	79465	65800	61920
0	79471	65800	61910
0	79477	65800	61900
0	79483	65800	61890
0	79489	65800	61880
0	79495	65800	61870
0	79501	65800	61860
0	79507	65800	61850
0	79513	65800	61840
0	79519	65800	61830
0	79525	65800	61820
0	79531	65800	61810
0	79537	65800	61800
0	79543	65800	61790
0	79549	65800	61780
0	79555	65800	61770
0	79561	65800	61760
0	79567	65800	61750
0	79573	65800	61740
0	79579	65800	61730
0	79585	65800	61720
0	79591	65800	61710
0	79597	65800	61700
0	79603	65800	61690
0	79609	65800	61680
0	79615	65800	61670
0	79621	65800	61660
0	79627	65800	61650
0	79633	65800	61640
0	79639	65800	61630
0	79645	65800	61620
0	79651	65800	61610
0	79657	65800	61600
0	79663	65800	61590
0	79669	65800	61580
0	79675	65800	61570
0	79681	65800	61560
0	79687	65800	61550
0	79693	65800	61540
0	79699	65800	61530
0	79705	65800	61520
0	79711	65800	61510
0	79717	65800	61500
0	79723	65800	61490
0	79729	65800	61480
0	79735	65800	61470
0	79741	65800	61460
0	79747	65800	61450
0	79753	65800	61440
0	79759	65800	61430
0	79765	65800	61420
0	79771	65800	61410
0	79777	65800	61400
0	79783	65800	61390
0	79789	65800	61380
0	79795	65800	61370
0	79801	65800	61360
0	79807	65800	61350
0	79813	65800	61340
0	79819	65800	61330
0	79825	65800	61320
0	79831	65800	61310
0	79837	65800	61300
0	79843	65800	61290
0	79849	65800	61280
0	79855	65800	61270
0	79861	65800	61260
0	79867	65800	61250
0	79873	65800	61240
0	79879	65800	61230
0	79885	65800	61220
0	79891	65800	61210
0	79897	65800	61200
0	79903	65800	61190
0	79909	65800	61180
0	79915	65800	61170
0	79921	65800	61160
0	79927	65800	61150
0	79933	65800	61140
0	79939	65800	61130
0	79945	65800	61120
0	79951	65800	61110
0	79957	65800	61100
0	79963	65800	61090
0	79969	65800	61080
0	79975	65800	61070
0	79981	65800	61060
0	79987	65800	61050
0	79993	65800	61040
0	79999	65800	61030
0	80005	65800	61020
0	80011	65800	61010
0	80017	65800	61000
0	80023	65800	60990
0	80029	65800	60980
0	80035	65800	60970
0	80041	65800	60960
0	80047	65800	60950
0	80053	65800	60940
0	80059	65800	60930
0	80065	65800	60920
0	80071	65800	60910
0	80077	65800	60900
0	80083	65800	60890
0	80089	65800	60880
0	80095	65800	60870
0	80101	65800	60860
0	80107	65800	60850
0	80113	65800	60840
0	80119	65800	60830
0	80125	65800	60820
0	80131	65800	60810
0	80137	65800	60800
0	80143	65800	60790
0	80149	65800	60780
0	80155	65800	60770
0	80161	65800	60760
0	80167	65800	60750
0	80173	65800	60740
0	80179	65800	60730
0	80185	65800	60720
0	80191	65800	60710
0	80197	65800	60700
0	80203	65800	60690
0	80209	65800	60680
0	80215	65800	60670
0	80221	65800	60660
0	80227	65800	60650
0	80233	65800	60640
0	80239	65800	60630
0	80245	65800	60620
0	80251	65800	60610
0	80257	65800	60600
0	80263	65800	60590
0	80269	65800	60580
0	80275	65800	60570
0	80281	65800	60560
0	80287	65800	60550
0	80293	65800	60540
0	80299	65800	60530
0	80305	65800	60520
0	80311	65800	60510
0	80317	65800	60500
0	80323	65800	60490
0	80329	65800	60480
0	80335	65800	60470
0	80341	65800	60460
0	80347	65800	60450
0	80353	65800	60440
0	80359	65800	60430
0	80365	65800	60420
0	80371	65800	60410
0	80377	65800	60400
0	80383	65800	60390
0	80389	65800	60380
0	80395	65800	60370
0	80401	65800	60360
0	80407	65800	60350
0	80413	65800	60340
0	80419	65800	60330
0	80425	65800	60320
0	80431	65800	60310
0	80437	65800	60300
0	80443	65800	60290
0	80449	65800	60280
0	80455	65800	60270
0	80461	65800	60260
0	80467	65800	60250
0	80473	65800	60240
0	80479	65800	60230
0	80485	65800	60220
0	80491	65800	60210
0	80497	65800	60200
0	80503	65800	60190
0	80509	65800	60180
0	80515	65800	60170
0	80521	65800	60160
0	80527	65800	60150
0	80533	65800	60140
0	80539	65800	60130
0	80545	65800	60120
0	80551	65800	60110
0	80557	65800	60100
0	80563	65800	60090
0	80569	65800	60080
0	80575	65800	60070
0	80581	65800	60060
0	80587	65800	60050
0	80593	65800	60040
0	80599	65800	60030
0	80605	65800	60020
0	80611	65800	60010
0	80617	65800	60000
0	80623	65800	59990
0	80629	65800	59980
0	80635	65800	59970
0	80641	65800	59960
0	80647	65800	59950
0	80653	65800	59940
0	80659	65800	59930
0	80665	65800	59920
0	80671	65800	59910
0	80677	65800	59900
0	80683	65800	59890
0	80689	65800	59880
0	80695	65800	59870
0	80701	65800	59860
0	80707	65800	59850
0	80713	65800	59840
0	80719	65800	59830
0	80725	65800	59820
0	80731	65800	59810
0	80737	65800	59800
0	80743	65800	59790
0	80749	65800	59780
0	80755	65800	59770
0	80761	65800	59760
0	80767	65800	59750
0	80773	65800	59740
0	80779	65800	59730
0	80785	65800	59720
0	80791	65800	59710
0	80797	65800	59700
0	80803	65800	59690
0	80809	65800	59680
0	80815	65800	59670
0	80821	65800	59660
0	80827	65800	59650
0	80833	65800	59640
0	80839	65800	59630
0	80845	65800	59620
0	80851	65800	59610
0	80857	65800	59600
0	80863	65800	59590
0	80869	65800	59580
0	80875	65800	59570
0	80881	65800	59560
0	80887	65800	59550
0	80893	65800	59540
0	80899	65800	59530
0	80905	65800	59520
0	80911	65800	59510
0	80917	65800	59500
0	80923	65800	59490
0	80929	65800	59480
0	80935	65800	59470
0	80941	65800	59460
0	80947	65800	59450
0	80953	65800	59440
0	80959	65800	59430
0	80965	65800	59420
0	80971	65800	59410
0	80977	65800	59400
0	80983	65800	59390
0	80989	65800	59380
0	80995	65800	59370
0	81001	65800	59360
0	81007	65800	59350
0	81013	65800	59340
0	81019	65800	59330
0	81025	65800	59320
0	81031	65800	59310
0	81037	65800	59300
0	81043	65800	59290
0	81049	65800	59280
0	81055	65800	59270
0	81061	65800	59260
0	81067	65800	59250
0	81073	65800	59240
0	81079	65800	59230
0	81085	65800	59220
0	81091	65800	59210
0	81097	65800	59200
0	81103	65800	59190
0	81109	65800	59180
0	81115	65800	59170
0	81121	65800	59160
0	81127	65800	59150
0	81133	65800	59140
0	81139	65800	59130
0	81145	65800	59120
0	81151	65800	59110
0	81157	65800	59100
0	81163	65800	59090
0	81169	65800	59080
0	81175	65800	59070
0	81181	65800	59060
0	81187	65800	59050
0	81193	65800	59040
0	81199	65800	59030
0	81205	65800	59020
0	81211	65800	59010
0	81217	65800	59000
0	81223	65800	58990
0	81229	65800	58980
0	81235	65800	58970
0	81241	65800	58960
0	81247	65800	58950
0	81253	65800	58940
0	81259	65800	58930
0	81265	65800	58920
0	81271	65800	58910
0	81277	65800	58900
0	81283	65800	58890
0	81289	65800	58880
0	81295	65800	58870
0	81301	65800	58860
0	81307	65800	58850
0	81313	65800	58840
0	81319	65800	58830
0	81325	65800	58820
0	81331	65800	58810
0	81337	65800	58800
0	81343	65800	58790
0	81349	65800	58780
0	81355	65800	58770
0	81361	65800	58760
0	81367	65800	58750
0	81373	65800	58740
0	81379	65800	58730
0	81385	65800	58720
0	81391	65800	58710
0	81397	65800	58700
0	81403	65800	58690
0	81409	65800	58680
0	81415	65800	58670
0	81421	65800	58660
0	81427	65800	58650
0	81433	65800	58640
0	81439	65800	58630
0	81445	65800	58620
0	81451	65800	58610
0	81457	65800	58600
0	81463	65800	58590
0	81469	65800	58580
0	81475	65800	58570
0	81481	65800	58560
0	81487	65800	58550
0	81493	65800	58540
0	81499	65800	58530
0	81505	65800	58520
0	81511	65800	58510
0	81517	65800	58500
0	81523	65800	58490
0	81529	65800	58480
0	81535	65800	58470
0	81541	65800	58460
0	81547	65800	58450
0	81553	65800	58440
0	81559	65800	58430
0	81565	65800	58420
0	81571	65800	58410
0	81577	65800	58400
0	81583	65800	58390
0	81589	65800	58380
0	81595	65800	58370
0	81601	65800	58360
0	81607	65800	58350
0	81613	65800	58340
0	81619	65800	58330
0	81625	65800	58320
0	81631	65800	58310
0	81637	65800	58300
0	81643	65800	58290
0	81649	65800	58280
0	81655	65800	58270
0	81661	65800	58260
0	81667	65800	58250
0	81673	65800	58240
0	81679	65800	58230
0	81685	65800	58220
0	81691	65800	58210
0	81697	65800	58200
0	81703	65800	58190
0	81709	65800	58180
0	81715	65800	58170
0	81721	65800	58160
0	81727	65800	58150
0	81733	65800	58140
0	81739	65800	58130
0	81745	65800	58120
0	81751	65800	58110
0	81757	65800	58100
0	81763	65800	58090
0	81769	65800	58080
0	81775	65800	58070
0	81781	65800	58060
0	81787	65800	58050
0	81793	65800	58040
0	81799	65800	58030
0	81805	65800	58020
0	81811	65800	58010
0	81817	65800	58000
0	81823	65800	57990
0	81829	65800	57980
0	81835	65800	57970
0	81841	65800	57960
0	81847	65800	57950
0	81853	65800	57940
0	81859	65800	57930
0	81865	65800	57920
0	81871	65800	57910
0	81877	65800	57900
0	81883	65800	57890
0	81889	65800	57880
0	81895	65800	57870
0	81901	65800	57860
0	81907	65800	57850
0	81913	65800	57840
0	81919	65800	57830
0	81925	65800	57820
0	81931	65800	57810
0	81937	65800	57800
0	81943	65800	57790
0	81949	65800	57780
0	81955	65800	57770
0	81961	65800	57760
0	81967	65800	57750
0	81973	65800	57740
0	81979	65800	57730
0	81985	65800	57720
0	81991	65800	57710
0	81997	65800	57700
0	82003	65800	57690
0	82009	65800	57680
0	82015	65800	57670
0	82021	65800	57660
0	82027	65800	57650
0	82033	65800	57640
0	82039	65800	57630
0	82045	65800	57620
0	82051	65800	57610
0	82057	65800	57600
0	82063	65800	57590
0	82069	65800	57580
0	82075	65800	57570
0	82081	65800	57560
0	82087	65800	57550
0	82093	65800	57540
0	82099	65800	57530
0	82105	65800	57520
0	82111	65800	57510
0	82117	65800	57500
0	82123	65800	57490
0	82129	65800	57480
0	82135	65800	57470
0	82141	65800	57460
0	82147	65800	57450
0	82153	65800	57440
0	82159	65800	57430
0	82165	65800	57420
0	82171	65800	57410
0	82177	65800	57400
0	82183	65800	57390
0	82189	65800	57380
0	82195	65800	57370
0	82201	65800	57360
0	82207	65800	57350
0	82213	65800	57340
0	82219	65800	57330
0	82225	65800	57320
0	82231	65800	57310
0	82237	65800	57300
0	82243	65800	57290
0	82249	65800	57280
0	82255	65800	57270
0	82261	65800	57260
0	82267	65800	57250
0	82273	65800	57240
0	82279	65800	57230
0	82285	65800	57220
0	82291	65800	57210
0	82297	65800	57200
0	82303	65800	57190
0	82309	65800	57180
0	82315	65800	57170
0	82321	65800	57160
0	82327	65800	57150
0	82333	65800	57140
0	82339	65800	57130
0	82345	65800	57120
0	82351	65800	57110
0	82357	65800	57100
0	82363	65800	57090
0	82369	65800	57080
0	82375	65800	57070
0	82381	65800	57060
0	82387	65800	57050
0	82393	65800	57040
0	82399	65800	57030
0	82405	65800	57020
0	82411	65800	57010
0	82417	65800	57000
0	82423	65800	56990
0	82429	65800	56980
0	82435	65800	56970
0	82441	65800	56960
0	82447	65800	56950
0	82453	65800	56940
0	82459	65800	56930
0	82465	65800	56920
0	82471	65800	56910
0	82477	65800	56900
0	82483	65800	56890
0	82489	65800	56880
0	82495	65800	56870
0	82501	65800	56860
0	82507	65800	56850
0	82513	65800	56840
0	82519	65800	56830
0	82525	65800	56820
0	82531	65800	56810
0	82537	65800	56800
0	82543	65800	56790
0	82549	65800	56780
0	82555	65800	56770
0	82561	65800	56760
0	82567	65800	56750
0	82573	65800	56740
0	82579	65800	56730
0	82585	65800	56720
0	82591	65800	56710
0	82597	65800	56700
0	82603	65800	56690
0	82609	65800	56680
0	82615	65800	56670
0	82621	65800	56660
0	82627	65800	56650
0	82633	65800	56640
0	82639	65800	56630
0	82645	65800	56620
0	82651	65800	56610
0	82657	65800	56600
0	82663	65800	56590
0	82669	65800	56580
0	82675	65800	56570
0	82681	65800	56560
0	82687	65800	56550
0	82693	65800	56540
0	82699	65800	56530
0	82705	65800	56520
0	82711	65800	56510
0	82717	65800	56500
0	82723	65800	56490
0	82729	65800	56480
0	82735	65800	56470
0	82741	65800	56460
0	82747	65800	56450
0	82753	65800	56440
0	82759	65800	56430
0	82765	65800	56420
0	82771	65800	56410
0	82777	65800	56400
0	82783	65800	56390
0	82789	65800	56380
0	82795	65800	56370
0	82801	65800	56360
0	82807	65800	56350
0	82813	65800	56340
0	82819	65800	56330
0	82825	65800	56320
0	82831	65800	56310
0	82837	65800	56300
0	82843	65800	56290
0	82849	65800	56280
0	82855	65800	56270
0	82861	65800	56260
0	82867	65800	56250
0	82873	65800	56240
0	82879	65800	56230
0	82885	65800	56220
0	82891	65800	56210
0	82897	65800	56200
0	82903	65800	56190
0	82909	65800	56180
0	82915	65800	56170
0	82921	65800	56160
0	82927	65800	56150
0	82933	65800	56140
0	82939	65800	56130
0	82945	65800	56120
0	82951	65800	56110
0	82957	65800	56100
0	82963	65800	56090
0	82969	65800	56080
0	82975	65800	56070
0	82981	65800	56060
0	82987	65800	56050
0	82993	65800	56040
0	82999	65800	56030
0	83005	65800	56020
0	83011	65800	56010
0	83017	65800	56000
0	83023	65800	55990
0	83029	65800	55980
0	83035	65800	55970
0	83041	65800	55960
0	83047	65800	55950
0	83053	65800	55940
0	83059	65800	55930
0	83065	65800	55920
0	83071	65800	55910
0	83077	65800	55900
0	83083	65800	55890
0	83089	65800	55880
0	83095	65800	55870
0	83101	65800	55860
0	83107	65800	55850
0	83113	65800	55840
0	83119	65800	55830
0	83125	65800	55820
0	83131	65800	55810
0	83137	65800	55800
0	83143	65800	55790
0	83149	65800	55780
0	83155	65800	55770
0	83161	65800	55760
0	83167	65800	55750
0	83173	65800	55740
0	83179	65800	55730
0	83185	65800	55720
0	83191	65800	55710
0	83197	65800	55700
0	83203	65800	55690
0	83209	65800	55680
0	83215	65800	55670
0	83221	65800	55660
0	83227	65800	55650
0	83233	65800	55640
0	83239	65800	55630
0	83245	65800	55620
0	83251	65800	55610
0	83257	65800	55600
0	83263	65800	55590
0	83269	65800	55580
0	83275	65800	55570
0	83281	65800	55560
0	83287	65800	55550
0	83293	65800	55540
0	83299	65800	55530
0	83305	65800	55520
0	83311	65800	55510
0	83317	65800	55500
0	83323	65800	55490
0	83329	65800	55480
0	83335	65800	55470
0	83341	65800	55460
0	83347	65800	55450
0	83353	65800	55440
0	83359	65800	55430
0	83365	65800	55420
0	83371	65800	55410
0	83377	65800	55400
0	83383	65800	55390
0	83389	65800	55380
0	83395	65800	55370
0	83401	65800	55360
0	83407	65800	55350
0	83413	65800	55340
0	83419	65800	55330
0	83425	65800	55320
0	83431	65800	55310
0	83437	65800	55300
0	83443	65800	55290
0	83449	65800	55280
0	83455	65800	55270
0	83461	65800	55260
0	83467	65800	55250
0	83473	65800	55240
0	83479	65800	55230
0	83485	65800	55220
0	83491	65800	55210
0	83497	65800	55200
0	83503	65800	55190
0	83509	65800	55180
0	83515	65800	55170
0	83521	65800	55160
0	83527	65800	55150
0	83533	65800	55140
0	83539	65800	55130
0	83545	65800	55120
0	83551	65800	55110
0	83557	65800	55100
0	83563	65800	55090
0	83569	65800	55080
0	83575	65800	55070
0	83581	65800	55060
0	83587	65800	55050
0	83593	65800	55040
0	83599	65800	55030
0	83605	65800	55020
0	83611	65800	55010
0	83617	65800	55000
0	83623	65800	54990
0	83629	65800	54980
0	83635	65800	54970
0	83641	65800	54960
0	83647	65800	54950
0	83653	65800	54940
0	83659	65800	54930
0	83665	65800	54920
0	83671	65800	54910
0	83677	65800	54900
0	83683	65800	54890
0	83689	65800	54880
0	83695	65800	54870
0	83701	65800	54860
0	83707	65800	54850
0	83713	65800	54840
0	83719	65800	54830
0	83725	65800	54820
0	83731	65800	54810
0	83737	65800	54800
0	83743	65800	54790
0	83749	65800	54780
0	83755	65800	54770
0	83761	65800	54760
0	83767	65800	54750
0	83773	65800	54740
0	83779	65800	54730
0	83785	65800	54720
0	83791	65800	54710
0	83797	65800	54700
0	83803	65800	54690
0	83809	65800	54680
0	83815	65800	54670
0	83821	65800	54660
0	83827	65800	54650
0	83833	65800	54640
0	83839	65800	54630
0	83845	65800	54620
0	83851	65800	54610
0	83857	65800	54600
0	83863	65800	54590
0	83869	65800	54580
0	83875	65800	54570
0	83881	65800	54560
0	83887	65800	54550
0	83893	65800	54540
0	83899	65800	54530
0	83905	65800	54520
0	83911	65800	54510
0	83917	65800	54500
0	83923	65800	54490
0	83929	65800	54480
0	83935	65800	54470
0	83941	65800	54460
0	83947	65800	54450
0	83953	65800	54440
0	83959	65800	54430
0	83965	65800	54420
0	83971	65800	54410
0	83977	65800	54400
0	83983	65800	54390
0	83989	65800	54380
0	83995	65800	54370
0	84001	65800	54360
0	84007	65800	54350
0	84013	65800	54340
0	84019	65800	54330
0	84025	65800	54320
0	84031	65800	54310
0	84037	65800	54300
0	84043	65800	54290
0	84049	65800	54280
0	84055	65800	54270
0	84061	65800	54260
0	84067	65800	54250
0	84073	65800	54240
0	84079	65800	54230
0	84085	65800	54220
0	84091	65800	54210
0	84097	65800	54200
0	84103	65800	54190
0	84109	65800	54180
0	84115	65800	54170
0	84121	65800	54160
0	84127	65800	54150
0	84133	65800	54140
0	84139	65800	54130
0	84145	65800	54120
0	84151	65800	54110
0	84157	65800	54100
0	84163	65800	54090
0	84169	65800	54080
0	84175	65800	54070
0	84181	65800	54060
0	84187	65800	54050
0	84193	65800	54040
0	84199	65800	54030
0	84205	65800	54020
0	84211	65800	54010
0	84217	65800	54000
0	84223	65800	53990
0	84229	65800	53980
0	84235	65800	53970
0	84241	65800	53960
0	84247	65800	53950
0	84253	65800	53940
0	84259	65800	53930
0	84265	65800	53920
0	84271	65800	53910
0	84277	65800	53900
0	84283	65800	53890
0	84289	65800	53880
0	84295	65800	53870
0	84301	65800	53860
0	84307	65800	53850
0	84313	65800	53840
0	84319	65800	53830
0	84325	65800	53820
0	84331	65800	53810
0	84337	65800	53800
0	84343	65800	53790
0	84349	65800	53780
0	84355	65800	53770
0	84361	65800	53760
0	84367	65800	53750
0	84373	65800	53740
0	84379	65800	53730
0	84385	65800	53720
0	84391	65800	53710
0	84397	65800	53700
0	84403	65800	53690
0	84409	65800	53680
0	84415	65800	53670
0	84421	65800	53660
0	84427	65800	53650
0	84433	65800	53640
0	84439	65800	53630
0	84445	65800	53620
0	84451	65800	53610
0	84457	65800	53600
0	84463	65800	53590
0	84469	65800	53580
0	84475	65800	53570
0	84481	65800	53560
0	84487	65800	53550
0	84493	65800	53540
0	84499	65800	53530
0	84505	65800	53520
0	84511	65800	53510
0	84517	65800	53500
0	84523	65800	53490
0	84529	65800	53480
0	84535	65800	53470
0	84541	65800	53460
0	84547	65800	53450
0	84553	65800	53440
0	84559	65800	53430
0	84565	65800	53420
0	84571	65800	53410
0	84577	65800	53400
0	84583	65800	53390
0	84589	65800	53380
0	84595	65800	53370
0	84601	65800	53360
0	84607	65800	53350
0	84613	65800	53340
0	84619	65800	53330
0	84625	65800	53320
0	84631	65800	53310
0	84637	65800	53300
0	84643	65800	53290
0	84649	65800	53280
0	84655	65800	53270
0	84661	65800	53260
0	84667	65800	53250
0	84673	65800	53240
0	84679	65800	53230
0	84685	65800	53220
0	84691	65800	53210
0	84697	65800	53200
0	84703	65800	53190
0	84709	65800	53180
0	84715	65800	53170
0	84721	65800	53160
0	84727	65800	53150
0	84733	65800	53140
0	84739	65800	53130
0	84745	65800	53120
0	84751	65800	53110
0	84757	65800	53100
0	84763	65800	53090
0	84769	65800	53080
0	84775	65800	53070
0	84781	65800	53060
0	84787	65800	53050
0	84793	65800	53040
0	84799	65800	53030
0	84805	65800	53020
0	84811	65800	53010
0	84817	65800	53000
0	84823	65800	52990
0	84829	65800	52980
0	84835	65800	52970
0	84841	65800	52960
0	84847	65800	52950
0	84853	65800	52940
0	84859	65800	52930
0	84865	65800	52920
0	84871	65800	52910
0	84877	65800	52900
0	84883	65800	52890
0	84889	65800	52880
0	84895	65800	52870
0	84901	65800	52860
0	84907	65800	52850
0	84913	65800	52840
0	84919	65800	52830
0	84925	65800	52820
0	84931	65800	52810
0	84937	65800	52800
0	84943	65800	52790
0	84949	65800	52780
0	84955	65800	52770
0	84961	65800	52760
0	84967	65800	52750
0	84973	65800	52740
0	84979	65800	52730
0	84985	65800	52720
0	84991	65800	52710
0	84997	65800	52700
0	85003	65800	52690
0	85009	65800	52680
0	85015	65800	52670
0	85021	65800	52660
0	85027	65800	52650
0	85033	65800	52640
0	85039	65800	52630
0	85045	65800	52620
0	85051	65800	52610
0	85057	65800	52600
0	85063	65800	52590
0	85069	65800	52580
0	85075	65800	52570
0	85081	65800	52560
0	85087	65800	52550
0	85093	65800	52540
0	85099	65800	52530
0	85105	65800	52520
0	85111	65800	52510
0	85117	65800	52500
0	85123	65800	52490
0	85129	65800	52480
0	85135	65800	52470
0	85141	65800	52460
0	85147	65800	52450
0	85153	65800	52440
0	85159	65800	52430
0	85165	65800	52420
0	85171	65800	52410
0	85177	65800	52400
0	85183	65800	52390
0	85189	65800	52380
0	85195	65800	52370
0	85201	65800	52360
0	85207	65800	52350
0	85213	65800	52340
0	85219	65800	52330
0	85225	65800	52320
0	85231	65800	52310
0	85237	65800	52300
0	85243	65800	52290
0	85249	65800	52280
0	85255	65800	52270
0	85261	65800	52260
0	85267	65800	52250
0	85273	65800	52240
0	85279	65800	52230
0	85285	65800	52220
0	85291	65800	52210
0	85297	65800	52200
0	85303	65800	52190
0	85309	65800	52180
0	85315	65800	52170
0	85321	65800	52160
0	85327	65800	52150
0	85333	65800	52140
0	85339	65800	52130
0	85345	65800	52120
0	85351	65800	52110
0	85357	65800	52100
0	85363	65800	52090
0	85369	65800	52080
0	85375	65800	52070
0	85381	65800	52060
0	85387	65800	52050
0	85393	65800	52040
0	85399	65800	52030
0	85405	65800	52020
0	85411	65800	52010
0	85417	65800	52000
0	85423	65800	51990
0	85429	65800	51980
0	85435	65800	51970
0	85441	65800	51960
0	85447	65800	51950
0	85453	65800	51940
0	85459	65800	51930
0	85465	65800	51920
0	85471	65800	51910
0	85477	65800	51900
0	85483	65800	51890
0	85489	65800	51880
0	85495	65800	51870
0	85501	65800	51860
0	85507	65800	51850
0	85513	65800	51840
0	85519	65800	51830
0	85525	65800	51820
0	85531	65800	51810
0	85537	65800	51800
0	85543	65800	51790
0	85549	65800	51780
0	85555	65800	51770
0	85561	65800	51760
0	85567	65800	51750
0	85573	65800	51740
0	85579	65800	51730
0	85585	65800	51720
0	85591	65800	51710
0	85597	65800	51700
0	85603	65800	51690
0	85609	65800	51680
0	85615	65800	51670
0	85621	65800	51660
0	85627	65800	51650
0	85633	65800	51640
0	85639	65800	51630
0	85645	65800	51620
0	85651	65800	51610
0	85657	65800	51600
0	85663	65800	51590
0	85669	65800	51580
0	85675	65800	51570
0	85681	65800	51560
0	85687	65800	51550
0	85693	65800	51540
0	85699	65800	51530
0	85705	65800	51520
0	85711	65800	51510
0	85717	65800	51500
0	85723	65800	51490
0	85729	65800	51480
0	85735	65800	51470
0	85741	65800	51460
0	85747	65800	51450
0	85753	65800	51440
0	85759	65800	51430
0	85765	65800	51420
0	85771	65800	51410
0	85777	65800	51400
0	85783	65800	51390
0	85789	65800	51380
0	85795	65800	51370
0	85801	65800	51360
0	85807	65800	51350
0	85813	65800	51340
0	85819	65800	51330
0	85825	65800	51320
0	85831	65800	51310
0	85837	65800	51300
0	85843	65800	51290
0	85849	65800	51280
0	85855	65800	51270
0	85861	65800	51260
0	85867	65800	51250
0	85873	65800	51240
0	85879	65800	51230
0	85885	65800	51220
0	85891	65800	51210
0	85897	65800	51200
0	85903	65800	51190
0	85909	65800	51180
0	85915	65800	51170
0	85921	65800	51160
0	85927	65800	51150
0	85933	65800	51140
0	85939	65800	51130
0	85945	65800	51120
0	85951	65800	51110
0	85957	65800	51100
0	85963	65800	51090
0	85969	65800	51080
0	85975	65800	51070
0	85981	65800	51060
0	85987	65800	51050
0	85993	65800	51040
0	85999	65800	51030
0	86005	65800	51020
0	86011	65800	51010
0	86017	65800	51000
0	86023	65800	50990
0	86029	65800	50980
0	86035	65800	50970
0	86041	65800	50960
0	86047	65800	50950
0	86053	65800	50940
0	86059	65800	50930
0	86065	65800	50920
0	86071	65800	50910
0	86077	65800	50900
0	86083	65800	50890
0	86089	65800	50880
0	86095	65800	50870
0	86101	65800	50860
0	86107	65800	50850
0	86113	65800	50840
0	86119	65800	50830
0	86125	65800	50820
0	86131	65800	50810
0	86137	65800	50800
0	86143	65800	50790
0	86149	65800	50780
0	86155	65800	50770
0	86161	65800	50760
0	86167	65800	50750
0	86173	65800	50740
0	86179	65800	50730
0	86185	65800	50720
0	86191	65800	50710
0	86197	65800	50700
0	86203	65800	50690
0	86209	65800	50680
0	86215	65800	50670
0	86221	65800	50660
0	86227	65800	50650
0	86233	65800	50640
0	86239	65800	50630
0	86245	65800	50620
0	86251	65800	50610
0	86257	65800	50600
0	86263	65800	50590
0	86269	65800	50580
0	86275	65800	50570
0	86281	65800	50560
0	86287	65800	50550
0	86293	65800	50540
0	86299	65800	50530
0	86305	65800	50520
0	86311	65800	50510
0	86317	65800	50500
0	86323	65800	50490
0	86329	65800	50480
0	86335	65800	50470
0	86341	65800	50460
0	86347	65800	50450
0	86353	65800	50440
0	86359	65800	50430
0	86365	65800	50420
0	86371	65800	50410
0	86377	65800	50400
0	86383	65800	50390
0	86389	65800	50380
0	86395	65800	50370
0	86401	65800	50360
0	86407	65800	50350
0	86413	65800	50340
0	86419	65800	50330
0	86425	65800	50320
0	86431	65800	50310
0	86437	65800	50300
0	86443	65800	50290
0	86449	65800	50280
0	86455	65800	50270
0	86461	65800	50260
0	86467	65800	50250
0	86473	65800	50240
0	86479	65800	50230
0	86485	65800	50220
0	86491	65800	50210
0	86497	65800	50200
0	86503	65800	50190
0	86509	65800	50180
0	86515	65800	50170
0	86521	65800	50160
0	86527	65800	50150
0	86533	65800	50140
0	86539	65800	50130
0	86545	65800	50120
0	86551	65800	50110
0	86557	65800	50100
0	86563	65800	50090
0	86569	65800	50080
0	86575	65800	50070
0	86581	65800	50060
0	86587	65800	50050
0	86593	65800	50040
0	86599	65800	50030
0	86605	65800	50020
0	86611	65800	50010
0	86617	65800	50000
0	86623	65800	49990
0	86629	65800	49980
0	86635	65800	49970
0	86641	65800	49960
0	86647	65800	49950
0	86653	65800	49940
0	86659	65800	49930
0	86665	65800	49920
0	86671	65800	49910
0	86677	65800	49900
0	86683	65800	49890
0	86689	65800	49880
0	86695	65800	49870
0	86701	65800	49860
0	86707	65800	49850
0	86713	65800	49840
0	86719	65800	49830
0	86725	65800	49820
0	86731	65800	49810
0	86737	65800	49800
0	86743	65800	49790
0	86749	65800	49780
0	86755	65800	49770
0	86761	65800	49760
0	86767	65800	49750
0	86773	65800	49740
0	86779	65800	49730
0	86785	65800	49720
0	86791	65800	49710
0	86797	65800	49700
0	86803	65800	49690
0	86809	65800	49680
0	86815	65800	49670
0	86821	65800	49660
0	86827	65800	49650
0	86833	65800	49640
0	86839	65800	49630
0	86845	65800	49620
0	86851	65800	49610
0	86857	65800	49600
0	86863	65800	49590
0	86869	65800	49580
0	86875	65800	49570
0	86881	65800	49560
0	86887	65800	49550
0	86893	65800	49540
0	86899	65800	49530
0	86905	65800	49520
0	86911	65800	49510
0	86917	65800	49500
0	86923	65800	49490
0	86929	65800	49480
0	86935	65800	49470
0	86941	65800	49460
0	86947	65800	49450
0	86953	65800	49440
0	86959	65800	49430
0	86965	65800	49420
0	86971	65800	49410
0	86977	65800	49400
0	86983	65800	49390
0	86989	65800	49380
0	86995	65800	49370
0	87001	65800	49360
0	87007	65800	49350
0	87013	65800	49340
0	87019	65800	49330
0	87025	65800	49320
0	87031	65800	49310
0	87037	65800	49300
0	87043	65800	49290
0	87049	65800	49280
0	87055	65800	49270
0	87061	65800	49260
0	87067	65800	49250
0	87073	65800	49240
0	87079	65800	49230
0	87085	65800	49220
0	87091	65800	49210
0	87097	65800	49200
0	87103	65800	49190
0	87109	65800	49180
0	87115	65800	49170
0	87121	65800	49160
0	87127	65800	49150
0	87133	65800	49140
0	87139	65800	49130
0	87145	65800	49120
0	87151	65800	49110
0	87157	65800	49100
0	87163	65800	49090
0	87169	65800	49080
0	87175	65800	49070
0	87181	65800	49060
0	87187	65800	49050
0	87193	65800	49040
0	87199	65800	49030
0	87205	65800	49020
0	87211	65800	49010
0	87217	65800	49000
0	87223	65800	48990
0	87229	65800	48980
0	87235	65800	48970
0	87241	65800	48960
0	87247	65800	48950
0	87253	65800	48940
0	87259	65800	48930
0	87265	65800	48920
0	87271	65800	48910
0	87277	65800	48900
0	87283	65800	48890
0	87289	65800	48880
0	87295	65800	48870
0	87301	65800	48860
0	87307	65800	48850
0	87313	65800	48840
0	87319	65800	48830
0	87325	65800	48820
0	87331	65800	48810
0	87337	65800	48800
0	87343	65800	48790
0	87349	65800	48780
0	87355	65800	48770
0	87361	65800	48760
0	87367	65800	48750
0	87373	65800	48740
0	87379	65800	48730
0	87385	65800	48720
0	87391	65800	48710
0	87397	65800	48700
0	87403	65800	48690
0	87409	65800	48680
0	87415	65800	48670
0	87421	65800	48660
0	87427	65800	48650
0	87433	65800	48640
0	87439	65800	48630
0	87445	65800	48620
0	87451	65800	48610
0	87457	65800	48600
0	87463	65800	48590
0	87469	65800	48580
0	87475	65800	48570
0	87481	65800	48560
0	87487	65800	48550
0	87493	65800	48540
0	87499	65800	48530
0	87505	65800	48520
0	87511	65800	48510
0	87517	65800	48500
0	87523	65800	48490
0	87529	65800	48480
0	87535	65800	48470
0	87541	65800	48460
0	87547	65800	48450
0	87553	65800	48440
0	87559	65800	48430
0	87565	65800	48420
0	87571	65800	48410
0	87577	65800	48400
0	87583	65800	48390
0	87589	65800	48380
0	87595	65800	48370
0	87601	65800	48360
0	87607	65800	48350
0	87613	65800	48340
0	87619	65800	48330
0	87625	65800	48320
0	87631	65800	48310
0	87637	65800	48300
0	87643	65800	48290
0	87649	65800	48280
0	87655	65800	48270
0	87661	65800	48260
0	87667	65800	48250
0	87673	65800	48240
0	87679	65800	48230
0	87685	65800	48220
0	87691	65800	48210
0	87697	65800	48200
0	87703	65800	48190
0	87709	65800	48180
0	87715	65800	48170
0	87721	65800	48160
0	87727	65800	48150
0	87733	65800	48140
0	87739	65800	48130
0	87745	65800	48120
0	87751	65800	48110
0	87757	65800	48100
0	87763	65800	48090
0	87769	65800	48080
0	87775	65800	48070
0	87781	65800	48060
0	87787	65800	48050
0	87793	65800	48040
0	87799	65800	48030
0	87805	65800	48020
0	87811	65800	48010
0	87817	65800	48000
0	87823	65800	47990
0	87829	65800	47980
0	87835	65800	47970
0	87841	65800	47960
0	87847	65800	47950
0	87853	65800	47940
0	87859	65800	47930
0	87865	65800	47920
0	87871	65800	47910
0	87877	65800	47900
0	87883	65800	47890
0	87889	65800	47880
0	87895	65800	47870
0	87901	65800	47860
0	87907	65800	47850
0	87913	65800	47840
0	87919	65800	47830
0	87925	65800	47820
0	87931	65800	47810
0	87937	65800	47800
0	87943	65800	47790
0	87949	65800	47780
0	87955	65800	47770
0	87961	65800	47760
0	87967	65800	47750
0	87973	65800	47740
0	87979	65800	47730
0	87985	65800	47720
0	87991	65800	47710
0	87997	65800	47700
0	88003	65800	47690
0	88009	65800	47680
0	88015	65800	47670
0	88021	65800	47660
0	88027	65800	47650
0	88033	65800	47640
0	88039	65800	47630
0	88045	65800	47620
0	88051	65800	47610
0	88057	65800	47600
0	88063	65800	47590
0	88069	65800	47580
0	88075	65800	47570
0	88081	65800	47560
0	88087	65800	47550
0	88093	65800	47540
0	88099	65800	47530
0	88105	65800	47520
0	88111	65800	47510
0	88117	65800	47500
0	88123	65800	47490
0	88129	65800	47480
0	88135	65800	47470
0	88141	65800	47460
0	88147	65800	47450
0	88153	65800	47440
0	88159	65800	47430
0	88165	65800	47420
0	88171	65800	47410
0	88177	65800	47400
0	88183	65800	47390
0	88189	65800	47380
0	88195	65800	47370
0	88201	65800	47360
0	88207	65800	47350
0	88213	65800	47340
0	88219	65800	47330
0	88225	65800	47320
0	88231	65800	47310
0	88237	65800	47300
0	88243	65800	47290
0	88249	65800	47280
0	88255	65800	47270
0	88261	65800	47260
0	88267	65800	47250
0	88273	65800	47240
0	88279	65800	47230
0	88285	65800	47220
0	88291	65800	47210
0	88297	65800	47200
0	88303	65800	47190
0	88309	65800	47180
0	88315	65800	47170
0	88321	65800	47160
0	88327	65800	47150
0	88333	65800	47140
0	88339	65800	47130
0	88345	65800	47120
0	88351	65800	47110
0	88357	65800	47100
0	88363	65800	47090
0	88369	65800	47080
0	88375	65800	47070
0	88381	65800	47060
0	88387	65800	47050
0	88393	65800	47040
0	88399	65800	47030
0	88405	65800	47020
0	88411	65800	47010
0	88417	65800	47000
0	88423	65800	46990
0	88429	65800	46980
0	88435	65800	46970
0	88441	65800	46960
0	88447	65800	46950
0	88453	65800	46940
0	88459	65800	46930
0	88465	65800	46920
0	88471	65800	46910
0	88477	65800	46900
0	88483	65800	46890
0	88489	65800	46880
0	88495	65800	46870
0	88501	65800	46860
0	88507	65800	46850
0	88513	65800	46840
0	88519	65800	46830
0	88525	65800	46820
0	88531	65800	46810
0	88537	65800	46800
0	88543	65800	46790
0	88549	65800	46780
0	88555	65800	46770
0	88561	65800	46760
0	88567	65800	46750
0	88573	65800	46740
0	88579	65800	46730
0	88585	65800	46720
0	88591	65800	46710
0	88597	65800	46700
0	88603	65800	46690
0	88609	65800	46680
0	88615	65800	46670
0	88621	65800	46660
0	88627	65800	46650
0	88633	65800	46640
0	88639	65800	46630
0	88645	65800	46620
0	88651	65800	46610
0	88657	65800	46600
0	88663	65800	46590
0	88669	65800	46580
0	88675	65800	46570
0	88681	65800	46560
0	88687	65800	46550
0	88693	65800	46540
0	88699	65800	46530
0	88705	65800	46520
0	88711	65800	46510
0	88717	65800	46500
0	88723	65800	46490
0	88729	65800	46480
0	88735	65800	46470
0	88741	65800	46460
0	88747	65800	46450
0	88753	65800	46440
0	88759	65800	46430
0	88765	65800	46420
0	88771	65800	46410
0	88777	65800	46400
0	88783	65800	46390
0	88789	65800	46380
0	88795	65800	46370
0	88801	65800	46360
0	88807	65800	46350
0	88813	65800	46340
0	88819	65800	46330
0	88825	65800	46320
0	88831	65800	46310
0	88837	65800	46300
0	88843	65800	46290
0	88849	65800	46280
0	88855	65800	46270
0	88861	65800	46260
0	88867	65800	46250
0	88873	65800	46240
0	88879	65800	46230
0	88885	65800	46220
0	88891	65800	46210
0	88897	65800	46200
0	88903	65800	46190
0	88909	65800	46180
0	88915	65800	46170
0	88921	65800	46160
0	88927	65800	46150
0	88933	65800	46140
0	88939	65800	46130
0	88945	65800	46120
0	88951	65800	46110
0	88957	65800	46100
0	88963	65800	46090
0	88969	65800	46080
0	88975	65800	46070
0	88981	65800	46060
0	88987	65800	46050
0	88993	65800	46040
0	88999	65800	46030
0	89005	65800	46020
0	89011	65800	46010
0	89017	65800	46000
0	89023	65800	45990
0	89029	65800	45980
0	89035	65800	45970
0	89041	65800	45960
0	89047	65800	45950
0	89053	65800	45940
0	89059	65800	45930
0	89065	65800	45920
0	89071	65800	45910
0	89077	65800	45900
0	89083	65800	45890
0	89089	65800	45880
0	89095	65800	45870
0	89101	65800	45860
0	89107	65800	45850
0	89113	65800	45840
0	89119	65800	45830
0	89125	65800	45820
0	89131	65800	45810
0	89137	65800	45800
0	89143	65800	45790
0	89149	65800	45780
0	89155	65800	45770
0	89161	65800	45760
0	89167	65800	45750
0	89173	65800	45740
0	89179	65800	45730
0	89185	65800	45720
0	89191	65800	45710
0	89197	65800	45700
0	89203	65800	45690
0	89209	65800	45680
0	89215	65800	45670
0	89221	65800	45660
0	89227	65800	45650
0	89233	65800	45640
0	89239	65800	45630
0	89245	65800	45620
0	89251	65800	45610
0	89257	65800	45600
0	89263	65800	45590
0	89269	65800	45580
0	89275	65800	45570
0	89281	65800	45560
0	89287	65800	45550
0	89293	65800	45540
0	89299	65800	45530
0	89305	65800	45520
0	89311	65800	45510
0	89317	65800	45500
0	89323	65800	45490
0	89329	65800	45480
0	89335	65800	45470
0	89341	65800	45460
0	89347	65800	45450
0	89353	65800	45440
0	89359	65800	45430
0	89365	65800	45420
0	89371	65800	45410
0	89377	65800	45400
0	89383	65800	45390
0	89389	65800	45380
0	89395	65800	45370
0	89401	65800	45360
0	89407	65800	45350
0	89413	65800	45340
0	89419	65800	45330
0	89425	65800	45320
0	89431	65800	45310
0	89437	65800	45300
0	89443	65800	45290
0	89449	65800	45280
0	89455	65800	45270
0	89461	65800	45260
0	89467	65800	45250
0	89473	65800	45240
0	89479	65800	45230
0	89485	65800	45220
0	89491	65800	45210
0	89497	65800	45200
0	89503	65800	45190
0	89509	65800	45180
0	89515	65800	45170
0	89521	65800	45160
0	89527	65800	45150
0	89533	65800	45140
0	89539	65800	45130
0	89545	65800	45120
0	89551	65800	45110
0	89557	65800	45100
0	89563	65800	45090
0	89569	65800	45080
0	89575	65800	45070
0	89581	65800	45060
0	89587	65800	45050
0	89593	65800	45040
0	89599	65800	45030
0	89605	65800	45020
0	89611	65800	45010
0	89617	65800	45000
0	89623	65800	44990
0	89629	65800	44980
0	89635	65800	44970
0	89641	65800	44960
0	89647	65800	44950
0	89653	65800	44940
0	89659	65800	44930
0	89665	65800	44920
0	89671	65800	44910
0	89677	65800	44900
0	89683	65800	44890
0	89689	65800	44880
0	89695	65800	44870
0	89701	65800	44860
0	89707	65800	44850
0	89713	65800	44840
0	89719	65800	44830
0	89725	65800	44820
0	89731	65800	44810
0	89737	65800	44800
0	89743	65800	44790
0	89749	65800	44780
0	89755	65800	44770
0	89761	65800	44760
0	89767	65800	44750
0	89773	65800	44740
0	89779	65800	44730
0	89785	65800	44720
0	89791	65800	44710
0	89797	65800	44700
0	89803	65800	44690
0	89809	65800	44680
0	89815	65800	44670
0	89821	65800	44660
0	89827	65800	44650
0	89833	65800	44640
0	89839	65800	44630
0	89845	65800	44620
0	89851	65800	44610
0	89857	65800	44600
0	89863	65800	44590
0	89869	65800	44580
0	89875	65800	44570
0	89881	65800	44560
0	89887	65800	44550
0	89893	65800	44540
0	89899	65800	44530
0	89905	65800	44520
0	89911	65800	44510
0	89917	65800	44500
0	89923	65800	44490
0	89929	65800	44480
0	89935	65800	44470
0	89941	65800	44460
0	89947	65800	44450
0	89953	65800	44440
0	89959	65800	44430
0	89965	65800	44420
0	89971	65800	44410
0	89977	65800	44400
0	89983	65800	44390
0	89989	65800	44380
0	89995	65800	44370
0	90001	65800	44360
0	90007	65800	44350
0	90013	65800	44340
0	90019	65800	44330
0	90025	65800	44320
0	90031	65800	44310
0	90037	65800	44300
0	90043	65800	44290
0	90049	65800	44280
0	90055	65800	44270
0	90061	65800	44260
0	90067	65800	44250
0	90073	65800	44240
0	90079	65800	44230
0	90085	65800	44220
0	90091	65800	44210
0	90097	65800	44200
0	90103	65800	44190
0	90109	65800	44180
0	90115	65800	44170
0	90121	65800	44160
0	90127	65800	44150
0	90133	65800	44140
0	90139	65800	44130
0	90145	65800	44120
0	90151	65800	44110
0	90157	65800	44100
0	90163	65800	44090
0	90169	65800	44080
0	90175	65800	44070
0	90181	65800	44060
0	90187	65800	44050
0	90193	65800	44040
0	90199	65800	44030
0	90205	65800	44020
0	90211	65800	44010
0	90217	65800	44000
0	90223	65800	43990
0	90229	65800	43980
0	90235	65800	43970
0	90241	65800	43960
0	90247	65800	43950
0	90253	65800	43940
0	90259	65800	43930
0	90265	65800	43920
0	90271	65800	43910
0	90277	65800	43900
0	90283	65800	43890
0	90289	65800	43880
0	90295	65800	43870
0	90301	65800	43860
0	90307	65800	43850
0	90313	65800	43840
0	90319	65800	43830
0	90325	65800	43820
0	90331	65800	43810
0	90337	65800	43800
0	90343	65800	43790
0	90349	65800	43780
0	90355	65800	43770
0	90361	65800	43760
0	90367	65800	43750
0	90373	65800	43740
0	90379	65800	43730
0	90385	65800	43720
0	90391	65800	43710
0	90397	65800	43700
0	90403	65800	43690
0	90409	65800	43680
0	90415	65800	43670
0	90421	65800	43660
0	90427	65800	43650
0	90433	65800	43640
0	90439	65800	43630
0	90445	65800	43620
0	90451	65800	43610
0	90457	65800	43600
0	90463	65800	43590
0	90469	65800	43580
0	90475	65800	43570
0	90481	65800	43560
0	90487	65800	43550
0	90493	65800	43540
0	90499	65800	43530
0	90505	65800	43520
0	90511	65800	43510
0	90517	65800	43500
0	90523	65800	43490
0	90529	65800	43480
0	90535	65800	43470
0	90541	65800	43460
0	90547	65800	43450
0	90553	65800	43440
0	90559	65800	43430
0	90565	65800	43420
0	90571	65800	43410
0	90577	65800	43400
0	90583	65800	43390
0	90589	65800	43380
0	90595	65800	43370
0	90601	65800	43360
0	90607	65800	43350
0	90613	65800	43340
0	90619	65800	43330
0	90625	65800	43320
0	90631	65800	43310
0	90637	65800	43300
0	90643	65800	43290
0	90649	65800	43280
0	90655	65800	43270
0	90661	65800	43260
0	90667	65800	43250
0	90673	65800	43240
0	90679	65800	43230
0	90685	65800	43220
0	90691	65800	43210
0	90697	65800	43200
0	90703	65800	43190
0	90709	65800	43180
0	90715	65800	43170
0	90721	65800	43160
0	90727	65800	43150
0	90733	65800	43140
0	90739	65800	43130
0	90745	65800	43120
0	90751	65800	43110
0	90757	65800	43100
0	90763	65800	43090
0	90769	65800	43080
0	90775	65800	43070
0	90781	65800	43060
0	90787	65800	43050
0	90793	65800	43040
0	90799	65800	43030
0	90805	65800	43020
0	90811	65800	43010
0	90817	65800	43000
0	90823	65800	42990
0	90829	65800	42980
0	90835	65800	42970
0	90841	65800	42960
0	90847	65800	42950
0	90853	65800	42940
0	90859	65800	42930
0	90865	65800	42920
0	90871	65800	42910
0	90877	65800	42900
0	90883	65800	42890
0	90889	65800	42880
0	90895	65800	42870
0	90901	65800	42860
0	90907	65800	42850
0	90913	65800	42840
0	90919	65800	42830
0	90925	65800	42820
0	90931	65800	42810
0	90937	65800	42800
0	90943	65800	42790
0	90949	65800	42780
0	90955	65800	42770
0	90961	65800	42760
0	90967	65800	42750
0	90973	65800	42740
0	90979	65800	42730
0	90985	65800	42720
0	90991	65800	42710
0	90997	65800	42700
0	91003	65800	42690
0	91009	65800	42680
0	91015	65800	42670
0	91021	65800	42660
0	91027	65800	42650
0	91033	65800	42640
0	91039	65800	42630
0	91045	65800	42620
0	91051	65800	42610
0	91057	65800	42600
0	91063	65800	42590
0	91069	65800	42580
0	91075	65800	42570
0	91081	65800	42560
0	91087	65800	42550
0	91093	65800	42540
0	91099	65800	42530
0	91105	65800	42520
0	91111	65800	42510
0	91117	65800	42500
0	91123	65800	42490
0	91129	65800	42480
0	91135	65800	42470
0	91141	65800	42460
0	91147	65800	42450
0	91153	65800	42440
0	91159	65800	42430
0	91165	65800	42420
0	91171	65800	42410
0	91177	65800	42400
0	91183	65800	42390
0	91189	65800	42380
0	91195	65800	42370
0	91201	65800	42360
0	91207	65800	42350
0	91213	65800	42340
0	91219	65800	42330
0	91225	65800	42320
0	91231	65800	42310
0	91237	65800	42300
0	91243	65800	42290
0	91249	65800	42280
0	91255	65800	42270
0	91261	65800	42260
0	91267	65800	42250
0	91273	65800	42240
0	91279	65800	42230
0	91285	65800	42220
0	91291	65800	42210
0	91297	65800	42200
0	91303	65800	42190
0	91309	65800	42180
0	91315	65800	42170
0	91321	65800	42160
0	91327	65800	42150
0	91333	65800	42140
0	91339	65800	42130
0	91345	65800	42120
0	91351	65800	42110
0	91357	65800	42100
0	91363	65800	42090
0	91369	65800	42080
0	91375	65800	42070
0	91381	65800	42060
0	91387	65800	42050
0	91393	65800	42040
0	91399	65800	42030
0	91405	65800	42020
0	91411	65800	42010
0	91417	65800	42000
0	91423	65800	41990
0	91429	65800	41980
0	91435	65800	41970
0	91441	65800	41960
0	91447	65800	41950
0	91453	65800	41940
0	91459	65800	41930
0	91465	65800	41920
0	91471	65800	41910
0	91477	65800	41900
0	91483	65800	41890
0	91489	65800	41880
0	91495	65800	41870
0	91501	65800	41860
0	91507	65800	41850
0	91513	65800	41840
0	91519	65800	41830
0	91525	65800	41820
0	91531	65800	41810
0	91537	65800	41800
0	91543	65800	41790
0	91549	65800	41780
0	91555	65800	41770
0	91561	65800	41760
0	91567	65800	41750
0	91573	65800	41740
0	91579	65800	41730
0	91585	65800	41720
0	91591	65800	41710
0	91597	65800	41700
0	91603	65800	41690
0	91609	65800	41680
0	91615	65800	41670
0	91621	65800	41660
0	91627	65800	41650
0	91633	65800	41640
0	91639	65800	41630
0	91645	65800	41620
0	91651	65800	41610
0	91657	65800	41600
0	91663	65800	41590
0	91669	65800	41580
0	91675	65800	41570
0	91681	65800	41560
0	91687	65800	41550
0	91693	65800	41540
0	91699	65800	41530
0	91705	65800	41520
0	91711	65800	41510
0	91717	65800	41500
0	91723	65800	41490
0	91729	65800	41480
0	91735	65800	41470
0	91741	65800	41460
0	91747	65800	41450
0	91753	65800	41440
0	91759	65800	41430
0	91765	65800	41420
0	91771	65800	41410
0	91777	65800	41400
0	91783	65800	41390
0	91789	65800	41380
0	91795	65800	41370
0	91801	65800	41360
0	91807	65800	41350
0	91813	65800	41340
0	91819	65800	41330
0	91825	65800	41320
0	91831	65800	41310
0	91837	65800	41300
0	91843	65800	41290
0	91849	65800	41280
0	91855	65800	41270
0	91861	65800	41260
0	91867	65800	41250
0	91873	65800	41240
0	91879	65800	41230
0	91885	65800	41220
0	91891	65800	41210
0	91897	65800	41200
0	91903	65800	41190
0	91909	65800	41180
0	91915	65800	41170
0	91921	65800	41160
0	91927	65800	41150
0	91933	65800	41140
0	91939	65800	41130
0	91945	65800	41120
0	91951	65800	41110
0	91957	65800	41100
0	91963	65800	41090
0	91969	65800	41080
0	91975	65800	41070
0	91981	65800	41060
0	91987	65800	41050
0	91993	65800	41040
0	91999	65800	41030
0	92005	65800	41020
0	92011	65800	41010
0	92017	65800	41000
0	92023	65800	40990
0	92029	65800	40980
0	92035	65800	40970
0	92041	65800	40960
0	92047	65800	40950
0	92053	65800	40940
0	92059	65800	40930
0	92065	65800	40920
0	92071	65800	40910
0	92077	65800	40900
0	92083	65800	40890
0	92089	65800	40880
0	92095	65800	40870
0	92101	65800	40860
0	92107	65800	40850
0	92113	65800	40840
0	92119	65800	40830
0	92125	65800	40820
0	92131	65800	40810
0	92137	65800	40800
0	92143	65800	40790
0	92149	65800	40780
0	92155	65800	40770
0	92161	65800	40760
0	92167	65800	40750
0	92173	65800	40740
0	92179	65800	40730
0	92185	65800	40720
0	92191	65800	40710
0	92197	65800	40700
0	92203	65800	40690
0	92209	65800	40680
0	92215	65800	40670
0	92221	65800	40660
0	92227	65800	40650
0	92233	65800	40640
0	92239	65800	40630
0	92245	65800	40620
0	92251	65800	40610
0	92257	65800	40600
0	92263	65800	40590
0	92269	65800	40580
0	92275	65800	40570
0	92281	65800	40560
0	92287	65800	40550
0	92293	65800	40540
0	92299	65800	40530
0	92305	65800	40520
0	92311	65800	40510
0	92317	65800	40500
0	92323	65800	40490
0	92329	65800	40480
0	92335	65800	40470
0	92341	65800	40460
0	92347	65800	40450
0	92353	65800	40440
0	92359	65800	40430
0	92365	65800	40420
0	92371	65800	40410
0	92377	65800	40400
0	92383	65800	40390
0	92389	65800	40380
0	92395	65800	40370
0	92401	65800	40360
0	92407	65800	40350
0	92413	65800	40340
0	92419	65800	40330
0	92425	65800	40320
0	92431	65800	40310
0	92437	65800	40300
0	92443	65800	40290
0	92449	65800	40280
0	92455	65800	40270
0	92461	65800	40260
0	92467	65800	40250
0	92473	65800	40240
0	92479	65800	40230
0	92485	65800	40220
0	92491	65800	40210
0	92497	65800	40200
0	92503	65800	40190
0	92509	65800	40180
0	92515	65800	40170
0	92521	65800	40160
0	92527	65800	40150
0	92533	65800	40140
0	92539	65800	40130
0	92545	65800	40120
0	92551	65800	40110
0	92557	65800	40100
0	92563	65800	40090
0	92569	65800	40080
0	92575	65800	40070
0	92581	65800	40060
0	92587	65800	40050
0	92593	65800	40040
0	92599	65800	40030
0	92605	65800	40020
0	92611	65800	40010
0	92617	65800	40000
0	92623	65800	39990
0	92629	65800	39980
0	92635	65800	39970
0	92641	65800	39960
0	92647	65800	39950
0	92653	65800	39940
0	92659	65800	39930
0	92665	65800	39920
0	92671	65800	39910
0	92677	65800	39900
0	92683	65800	39890
0	92689	65800	39880
0	92695	65800	39870
0	92701	65800	39860
0	92707	65800	39850
0	92713	65800	39840
0	92719	65800	39830
0	92725	65800	39820
0	92731	65800	39810
0	92737	65800	39800
0	92743	65800	39790
0	92749	65800	39780
0	92755	65800	39770
0	92761	65800	39760
0	92767	65800	39750
0	92773	65800	39740
0	92779	65800	39730
0	92785	65800	39720
0	92791	65800	39710
0	92797	65800	39700
0	92803	65800	39690
0	92809	65800	39680
0	92815	65800	39670
0	92821	65800	39660
0	92827	65800	39650
0	92833	65800	39640
0	92839	65800	39630
0	92845	65800	39620
0	92851	65800	39610
0	92857	65800	39600
0	92863	65800	39590
0	92869	65800	39580
0	92875	65800	39570
0	92881	65800	39560
0	92887	65800	39550
0	92893	65800	39540
0	92899	65800	39530
0	92905	65800	39520
0	92911	65800	39510
0	92917	65800	39500
0	92923	65800	39490
0	92929	65800	39480
0	92935	65800	39470
0	92941	65800	39460
0	92947	65800	39450
0	92953	65800	39440
0	92959	65800	39430
0	92965	65800	39420
0	92971	65800	39410
0	92977	65800	39400
0	92983	65800	39390
0	92989	65800	39380
0	92995	65800	39370
0	93001	65800	39360
0	93007	65800	39350
0	93013	65800	39340
0	93019	65800	39330
0	93025	65800	39320
0	93031	65800	39310
0	93037	65800	39300
0	93043	65800	39290
0	93049	65800	39280
0	93055	65800	39270
0	93061	65800	39260
0	93067	65800	39250
0	93073	65800	39240
0	93079	65800	39230
0	93085	65800	39220
0	93091	65800	39210
0	93097	65800	39200
0	93103	65800	39190
0	93109	65800	39180
0	93115	65800	39170
0	93121	65800	39160
0	93127	65800	39150
0	93133	65800	39140
0	93139	65800	39130
0	93145	65800	39120
0	93151	65800	39110
0	93157	65800	39100
0	93163	65800	39090
0	93169	65800	39080
0	93175	65800	39070
0	93181	65800	39060
0	93187	65800	39050
0	93193	65800	39040
0	93199	65800	39030
0	93205	65800	39020
0	93211	65800	39010
0	93217	65800	39000
0	93223	65800	38990
0	93229	65800	38980
0	93235	65800	38970
0	93241	65800	38960
0	93247	65800	38950
0	93253	65800	38940
0	93259	65800	38930
0	93265	65800	38920
0	93271	65800	38910
0	93277	65800	38900
0	93283	65800	38890
0	93289	65800	38880
0	93295	65800	38870
0	93301	65800	38860
0	93307	65800	38850
0	93313	65800	38840
0	93319	65800	38830
0	93325	65800	38820
0	93331	65800	38810
0	93337	65800	38800
0	93343	65800	38790
0	93349	65800	38780
0	93355	65800	38770
0	93361	65800	38760
0	93367	65800	38750
0	93373	65800	38740
0	93379	65800	38730
0	93385	65800	38720
0	93391	65800	38710
0	93397	65800	38700
0	93403	65800	38690
0	93409	65800	38680
0	93415	65800	38670
0	93421	65800	38660
0	93427	65800	38650
0	93433	65800	38640
0	93439	65800	38630
0	93445	65800	38620
0	93451	65800	38610
0	93457	65800	38600
0	93463	65800	38590
0	93469	65800	38580
0	93475	65800	38570
0	93481	65800	38560
0	93487	65800	38550
0	93493	65800	38540
0	93499	65800	38530
0	93505	65800	38520
0	93511	65800	38510
0	93517	65800	38500
0	93523	65800	38490
0	93529	65800	38480
0	93535	65800	38470
0	93541	65800	38460
0	93547	65800	38450
0	93553	65800	38440
0	93559	65800	38430
0	93565	65800	38420
0	93571	65800	38410
0	93577	65800	38400
0	93583	65800	38390
0	93589	65800	38380
0	93595	65800	38370
0	93601	65800	38360
0	93607	65800	38350
0	93613	65800	38340
0	93619	65800	38330
0	93625	65800	38320
0	93631	65800	38310
0	93637	65800	38300
0	93643	65800	38290
0	93649	65800	38280
0	93655	65800	38270
0	93661	65800	38260
0	93667	65800	38250
0	93673	65800	38240
0	93679	65800	38230
0	93685	65800	38220
0	93691	65800	38210
0	93697	65800	38200
0	93703	65800	38190
0	93709	65800	38180
0	93715	65800	38170
0	93721	65800	38160
0	93727	65800	38150
0	93733	65800	38140
0	93739	65800	38130
0	93745	65800	38120
0	93751	65800	38110
0	93757	65800	38100
0	93763	65800	38090
0	93769	65800	38080
0	93775	65800	38070
0	93781	65800	38060
0	93787	65800	38050
0	93793	65800	38040
0	93799	65800	38030
0	93805	65800	38020
0	93811	65800	38010
0	93817	65800	38000
0	93823	65800	37990
0	93829	65800	37980
0	93835	65800	37970
0	93841	65800	37960
0	93847	65800	37950
0	93853	65800	37940
0	93859	65800	37930
0	93865	65800	37920
0	93871	65800	37910
0	93877	65800	37900
0	93883	65800	37890
0	93889	65800	37880
0	93895	65800	37870
0	93901	65800	37860
0	93907	65800	37850
0	93913	65800	37840
0	93919	65800	37830
0	93925	65800	37820
0	93931	65800	37810
0	93937	65800	37800
0	93943	65800	37790
0	93949	65800	37780
0	93955	65800	37770
0	93961	65800	37760
0	93967	65800	37750
0	93973	65800	37740
0	93979	65800	37730
0	93985	65800	37720
0	93991	65800	37710
0	93997	65800	37700
0	94003	65800	37690
0	94009	65800	37680
0	94015	65800	37670
0	94021	65800	37660
0	94027	65800	37650
0	94033	65800	37640
0	94039	65800	37630
0	94045	65800	37620
0	94051	65800	37610
0	94057	65800	37600
0	94063	65800	37590
0	94069	65800	37580
0	94075	65800	37570
0	94081	65800	37560
0	94087	65800	37550
0	94093	65800	37540
0	94099	65800	37530
0	94105	65800	37520
0	94111	65800	37510
0	94117	65800	37500
0	94123	65800	37490
0	94129	65800	37480
0	94135	65800	37470
0	94141	65800	37460
0	94147	65800	37450
0	94153	65800	37440
0	94159	65800	37430
0	94165	65800	37420
0	94171	65800	37410
0	94177	65800	37400
0	94183	65800	37390
0	94189	65800	37380
0	94195	65800	37370
0	94201	65800	37360
0	94207	65800	37350
0	94213	65800	37340
0	94219	65800	37330
0	94225	65800	37320
0	94231	65800	37310
0	94237	65800	37300
0	94243	65800	37290
0	94249	65800	37280
0	94255	65800	37270
0	94261	65800	37260
0	94267	65800	37250
0	94273	65800	37240
0	94279	65800	37230
0	94285	65800	37220
0	94291	65800	37210
0	94297	65800	37200
0	94303	65800	37190
0	94309	65800	37180
0	94315	65800	37170
0	94321	65800	37160
0	94327	65800	37150
0	94333	65800	37140
0	94339	65800	37130
0	94345	65800	37120
0	94351	65800	37110
0	94357	65800	37100
0	94363	65800	37090
0	94369	65800	37080
0	94375	65800	37070
0	94381	65800	37060
0	94387	65800	37050
0	94393	65800	37040
0	94399	65800	37030
0	94405	65800	37020
0	94411	65800	37010
0	94417	65800	37000
0	94423	65800	36990
0	94429	65800	36980
0	94435	65800	36970
0	94441	65800	36960
0	94447	65800	36950
0	94453	65800	36940
0	94459	65800	36930
0	94465	65800	36920
0	94471	65800	36910
0	94477	65800	36900
0	94483	65800	36890
0	94489	65800	36880
0	94495	65800	36870
0	94501	65800	36860
0	94507	65800	36850
0	94513	65800	36840
0	94519	65800	36830
0	94525	65800	36820
0	94531	65800	36810
0	94537	65800	36800
0	94543	65800	36790
0	94549	65800	36780
0	94555	65800	36770
0	94561	65800	36760
0	94567	65800	36750
0	94573	65800	36740
0	94579	65800	36730
0	94585	65800	36720
0	94591	65800	36710
0	94597	65800	36700
0	94603	65800	36690
0	94609	65800	36680
0	94615	65800	36670
0	94621	65800	36660
0	94627	65800	36650
0	94633	65800	36640
0	94639	65800	36630
0	94645	65800	36620
0	94651	65800	36610
0	94657	65800	36600
0	94663	65800	36590
0	94669	65800	36580
0	94675	65800	36570
0	94681	65800	36560
0	94687	65800	36550
0	94693	65800	36540
0	94699	65800	36530
0	94705	65800	36520
0	94711	65800	36510
0	94717	65800	36500
0	94723	65800	36490
0	94729	65800	36480
0	94735	65800	36470
0	94741	65800	36460
0	94747	65800	36450
0	94753	65800	36440
0	94759	65800	36430
0	94765	65800	36420
0	94771	65800	36410
0	94777	65800	36400
0	94783	65800	36390
0	94789	65800	36380
0	94795	65800	36370
0	94801	65800	36360
0	94807	65800	36350
0	94813	65800	36340
0	94819	65800	36330
0	94825	65800	36320
0	94831	65800	36310
0	94837	65800	36300
0	94843	65800	36290
0	94849	65800	36280
0	94855	65800	36270
0	94861	65800	36260
0	94867	65800	36250
0	94873	65800	36240
0	94879	65800	36230
0	94885	65800	36220
0	94891	65800	36210
0	94897	65800	36200
0	94903	65800	36190
0	94909	65800	36180
0	94915	65800	36170
0	94921	65800	36160
0	94927	65800	36150
0	94933	65800	36140
0	94939	65800	36130
0	94945	65800	36120
0	94951	65800	36110
0	94957	65800	36100
0	94963	65800	36090
0	94969	65800	36080
0	94975	65800	36070
0	94981	65800	36060
0	94987	65800	36050
0	94993	65800	36040
0	94999	65800	36030
0	95005	65800	36020
0	95011	65800	36010
0	95017	65800	36000
0	95023	65800	35990
0	95029	65800	35980
0	95035	65800	35970
0	95041	65800	35960
0	95047	65800	35950
0	95053	65800	35940
0	95059	65800	35930
0	95065	65800	35920
0	95071	65800	35910
0	95077	65800	35900
0	95083	65800	35890
0	95089	65800	35880
0	95095	65800	35870
0	95101	65800	35860
0	95107	65800	35850
0	95113	65800	35840
0	95119	65800	35830
0	95125	65800	35820
0	95131	65800	35810
0	95137	65800	35800
0	95143	65800	35790
0	95149	65800	35780
0	95155	65800	35770
0	95161	65800	35760
0	95167	65800	35750
0	95173	65800	35740
0	95179	65800	35730
0	95185	65800	35720
0	95191	65800	35710
0	95197	65800	35700
0	95203	65800	35690
0	95209	65800	35680
0	95215	65800	35670
0	95221	65800	35660
0	95227	65800	35650
0	95233	65800	35640
0	95239	65800	35630
0	95245	65800	35620
0	95251	65800	35610
0	95257	65800	35600
0	95263	65800	35590
0	95269	65800	35580
0	95275	65800	35570
0	95281	65800	35560
0	95287	65800	35550
0	95293	65800	35540
0	95299	65800	35530
0	95305	65800	35520
0	95311	65800	35510
0	95317	65800	35500
0	95323	65800	35490
0	95329	65800	35480
0	95335	65800	35470
0	95341	65800	35460
0	95347	65800	35450
0	95353	65800	35440
0	95359	65800	35430
0	95365	65800	35420
0	95371	65800	35410
0	95377	65800	35400
0	95383	65800	35390
0	95389	65800	35380
0	95395	65800	35370
0	95401	65800	35360
0	95407	65800	35350
0	95413	65800	35340
0	95419	65800	35330
0	95425	65800	35320
0	95431	65800	35310
0	95437	65800	35300
0	95443	65800	35290
0	95449	65800	35280
0	95455	65800	35270
0	95461	65800	35260
0	95467	65800	35250
0	95473	65800	35240
0	95479	65800	35230
0	95485	65800	35220
0	95491	65800	35210
0	95497	65800	35200
0	95503	65800	35190
0	95509	65800	35180
0	95515	65800	35170
0	95521	65800	35160
0	95527	65800	35150
0	95533	65800	35140
0	95539	65800	35130
0	95545	65800	35120
0	95551	65800	35110
0	95557	65800	35100
0	95563	65800	35090
0	95569	65800	35080
0	95575	65800	35070
0	95581	65800	35060
0	95587	65800	35050
0	95593	65800	35040
0	95599	65800	35030
0	95605	65800	35020
0	95611	65800	35010
0	95617	65800	35000
0	95623	65800	34990
0	95629	65800	34980
0	95635	65800	34970
0	95641	65800	34960
0	95647	65800	34950
0	95653	65800	34940
0	95659	65800	34930
0	95665	65800	34920
0	95671	65800	34910
0	95677	65800	34900
0	95683	65800	34890
0	95689	65800	34880
0	95695	65800	34870
0	95701	65800	34860
0	95707	65800	34850
0	95713	65800	34840
0	95719	65800	34830
0	95725	65800	34820
0	95731	65800	34810
0	95737	65800	34800
0	95743	65800	34790
0	95749	65800	34780
0	95755	65800	34770
0	95761	65800	34760
0	95767	65800	34750
0	95773	65800	34740
0	95779	65800	34730
0	95785	65800	34720
0	95791	65800	34710
0	95797	65800	34700
0	95803	65800	34690
0	95809	65800	34680
0	95815	65800	34670
0	95821	65800	34660
0	95827	65800	34650
0	95833	65800	34640
0	95839	65800	34630
0	95845	65800	34620
0	95851	65800	34610
0	95857	65800	34600
0	95863	65800	34590
0	95869	65800	34580
0	95875	65800	34570
0	95881	65800	34560
0	95887	65800	34550
0	95893	65800	34540
0	95899	65800	34530
0	95905	65800	34520
0	95911	65800	34510
0	95917	65800	34500
0	95923	65800	34490
0	95929	65800	34480
0	95935	65800	34470
0	95941	65800	34460
0	95947	65800	34450
0	95953	65800	34440
0	95959	65800	34430
0	95965	65800	34420
0	95971	65800	34410
0	95977	65800	34400
0	95983	65800	34390
0	95989	65800	34380
0	95995	65800	34370
0	96001	65800	34360
0	96007	65800	34350
0	96013	65800	34340
0	96019	65800	34330
0	96025	65800	34320
0	96031	65800	34310
0	96037	65800	34300
0	96043	65800	34290
0	96049	65800	34280
0	96055	65800	34270
0	96061	65800	34260
0	96067	65800	34250
0	96073	65800	34240
0	96079	65800	34230
0	96085	65800	34220
0	96091	65800	34210
0	96097	65800	34200
0	96103	65800	34190
0	96109	65800	34180
0	96115	65800	34170
0	96121	65800	34160
0	96127	65800	34150
0	96133	65800	34140
0	96139	65800	34130
0	96145	65800	34120
0	96151	65800	34110
0	96157	65800	34100
0	96163	65800	34090
0	96169	65800	34080
0	96175	65800	34070
0	96181	65800	34060
0	96187	65800	34050
0	96193	65800	34040
0	96199	65800	34030
0	96205	65800	34020
0	96211	65800	34010
0	96217	65800	34000
0	96223	65800	33990
0	96229	65800	33980
0	96235	65800	33970
0	96241	65800	33960
0	96247	65800	33950
0	96253	65800	33940
0	96259	65800	33930
0	96265	65800	33920
0	96271	65800	33910
0	96277	65800	33900
0	96283	65800	33890
0	96289	65800	33880
0	96295	65800	33870
0	96301	65800	33860
0	96307	65800	33850
0	96313	65800	33840
0	96319	65800	33830
0	96325	65800	33820
0	96331	65800	33810
0	96337	65800	33800
0	96343	65800	33790
0	96349	65800	33780
0	96355	65800	33770
0	96361	65800	33760
0	96367	65800	33750
0	96373	65800	33740
0	96379	65800	33730
0	96385	65800	33720
0	96391	65800	33710
0	96397	65800	33700
0	96403	65800	33690
0	96409	65800	33680
0	96415	65800	33670
0	96421	65800	33660
0	96427	65800	33650
0	96433	65800	33640
0	96439	65800	33630
0	96445	65800	33620
0	96451	65800	33610
0	96457	65800	33600
0	96463	65800	33590
0	96469	65800	33580
0	96475	65800	33570
0	96481	65800	33560
0	96487	65800	33550
0	96493	65800	33540
0	96499	65800	33530
0	96505	65800	33520
0	96511	65800	33510
0	96517	65800	33500
0	96523	65800	33490
0	96529	65800	33480
0	96535	65800	33470
0	96541	65800	33460
0	96547	65800	33450
0	96553	65800	33440
0	96559	65800	33430
0	96565	65800	33420
0	96571	65800	33410
0	96577	65800	33400
0	96583	65800	33390
0	96589	65800	33380
0	96595	65800	33370
0	96601	65800	33360
0	96607	65800	33350
0	96613	65800	33340
0	96619	65800	33330
0	96625	65800	33320
0	96631	65800	33310
0	96637	65800	33300
0	96643	65800	33290
0	96649	65800	33280
0	96655	65800	33270
0	96661	65800	33260
0	96667	65800	33250
0	96673	65800	33240
0	96679	65800	33230
0	96685	65800	33220
0	96691	65800	33210
0	96697	65800	33200
0	96703	65800	33190
0	96709	65800	33180
0	96715	65800	33170
0	96721	65800	33160
0	96727	65800	33150
0	96733	65800	33140
0	96739	65800	33130
0	96745	65800	33120
0	96751	65800	33110
0	96757	65800	33100
0	96763	65800	33090
0	96769	65800	33080
0	96775	65800	33070
0	96781	65800	33060
0	96787	65800	33050
0	96793	65800	33040
0	96799	65800	33030
0	96805	65800	33020
0	96811	65800	33010
0	96817	65800	33000
0	96823	65800	32990
0	96829	65800	32980
0	96835	65800	32970
0	96841	65800	32960
0	96847	65800	32950
0	96853	65800	32940
0	96859	65800	32930
0	96865	65800	32920
0	96871	65800	32910
0	96877	65800	32900
0	96883	65800	32890
0	96889	65800	32880
0	96895	65800	32870
0	96901	65800	32860
0	96907	65800	32850
0	96913	65800	32840
0	96919	65800	32830
0	96925	65800	32820
0	96931	65800	32810
0	96937	65800	32800
0	96943	65800	32790
0	96949	65800	32780
0	96955	65800	32770
0	96961	65800	32760
0	96967	65800	32750
0	96973	65800	32740
0	96979	65800	32730
0	96985	65800	32720
0	96991	65800	32710
0	96997	65800	32700
0	97003	65800	32690
0	97009	65800	32680
0	97015	65800	32670
0	97021	65800	32660
0	97027	65800	32650
0	97033	65800	32640
0	97039	65800	32630
0	97045	65800	32620
0	97051	65800	32610
0	97057	65800	32600
0	97063	65800	32590
0	97069	65800	32580
0	97075	65800	32570
0	97081	65800	32560
0	97087	65800	32550
0	97093	65800	32540
0	97099	65800	32530
0	97105	65800	32520
0	97111	65800	32510
0	97117	65800	32500
0	97123	65800	32490
0	97129	65800	32480
0	97135	65800	32470
0	97141	65800	32460
0	97147	65800	32450
0	97153	65800	32440
0	97159	65800	32430
0	97165	65800	32420
0	97171	65800	32410
0	97177	65800	32400
0	97183	65800	32390
0	97189	65800	32380
0	97195	65800	32370
0	97201	65800	32360
0	97207	65800	32350
0	97213	65800	32340
0	97219	65800	32330
0	97225	65800	32320
0	97231	65800	32310
0	97237	65800	32300
0	97243	65800	32290
0	97249	65800	32280
0	97255	65800	32270
0	97261	65800	32260
0	97267	65800	32250
0	97273	65800	32240
0	97279	65800	32230
0	97285	65800	32220
0	97291	65800	32210
0	97297	65800	32200
0	97303	65800	32190
0	97309	65800	32180
0	97315	65800	32170
0	97321	65800	32160
0	97327	65800	32150
0	97333	65800	32140
0	97339	65800	32130
0	97345	65800	32120
0	97351	65800	32110
0	97357	65800	32100
0	97363	65800	32090
0	97369	65800	32080
0	97375	65800	32070
0	97381	65800	32060
0	97387	65800	32050
0	97393	65800	32040
0	97399	65800	32030
0	97405	65800	32020
0	97411	65800	32010
0	97417	65800	32000
0	97423	65800	31990
0	97429	65800	31980
0	97435	65800	31970
0	97441	65800	31960
0	97447	65800	31950
0	97453	65800	31940
0	97459	65800	31930
0	97465	65800	31920
0	97471	65800	31910
0	97477	65800	31900
0	97483	65800	31890
0	97489	65800	31880
0	97495	65800	31870
0	97501	65800	31860
0	97507	65800	31850
0	97513	65800	31840
0	97519	65800	31830
0	97525	65800	31820
0	97531	65800	31810
0	97537	65800	31800
0	97543	65800	31790
0	97549	65800	31780
0	97555	65800	31770
0	97561	65800	31760
0	97567	65800	31750
0	97573	65800	31740
0	97579	65800	31730
0	97585	65800	31720
0	97591	65800	31710
0	97597	65800	31700
0	97603	65800	31690
0	97609	65800	31680
0	97615	65800	31670
0	97621	65800	31660
0	97627	65800	31650
0	97633	65800	31640
0	97639	65800	31630
0	97645	65800	31620
0	97651	65800	31610
0	97657	65800	31600
0	97663	65800	31590
0	97669	65800	31580
0	97675	65800	31570
0	97681	65800	31560
0	97687	65800	31550
0	97693	65800	31540
0	97699	65800	31530
0	97705	65800	31520
0	97711	65800	31510
0	97717	65800	31500
0	97723	65800	31490
0	97729	65800	31480
0	97735	65800	31470
0	97741	65800	31460
0	97747	65800	31450
0	97753	65800	31440
0	97759	65800	31430
0	97765	65800	31420
0	97771	65800	31410
0	97777	65800	31400
0	97783	65800	31390
0	97789	65800	31380
0	97795	65800	31370
0	97801	65800	31360
0	97807	65800	31350
0	97813	65800	31340
0	97819	65800	31330
0	97825	65800	31320
0	97831	65800	31310
0	97837	65800	31300
0	97843	65800	31290
0	97849	65800	31280
0	97855	65800	31270
0	97861	65800	31260
0	97867	65800	31250
0	97873	65800	31240
0	97879	65800	31230
0	97885	65800	31220
0	97891	65800	31210
0	97897	65800	31200
0	97903	65800	31190
0	97909	65800	31180
0	97915	65800	31170
0	97921	65800	31160
0	97927	65800	31150
0	97933	65800	31140
0	97939	65800	31130
0	97945	65800	31120
0	97951	65800	31110
0	97957	65800	31100
0	97963	65800	31090
0	97969	65800	31080
0	97975	65800	31070
0	97981	65800	31060
0	97987	65800	31050
0	97993	65800	31040
0	97999	65800	31030
0	98005	65800	31020
0	98011	65800	31010
0	98017	65800	31000
0	98023	65800	30990
0	98029	65800	30980
0	98035	65800	30970
0	98041	65800	30960
0	98047	65800	30950
0	98053	65800	30940
0	98059	65800	30930
0	98065	65800	30920
0	98071	65800	30910
0	98077	65800	30900
0	98083	65800	30890
0	98089	65800	30880
0	98095	65800	30870
0	98101	65800	30860
0	98107	65800	30850
0	98113	65800	30840
0	98119	65800	30830
0	98125	65800	30820
0	98131	65800	30810
0	98137	65800	30800
0	98143	65800	30790
0	98149	65800	30780
0	98155	65800	30770
0	98161	65800	30760
0	98167	65800	30750
0	98173	65800	30740
0	98179	65800	30730
0	98185	65800	30720
0	98191	65800	30710
0	98197	65800	30700
0	98203	65800	30690
0	98209	65800	30680
0	98215	65800	30670
0	98221	65800	30660
0	98227	65800	30650
0	98233	65800	30640
0	98239	65800	30630
0	98245	65800	30620
0	98251	65800	30610
0	98257	65800	30600
0	98263	65800	30590
0	98269	65800	30580
0	98275	65800	30570
0	98281	65800	30560
0	98287	65800	30550
0	98293	65800	30540
0	98299	65800	30530
0	98305	65800	30520
0	98311	65800	30510
0	98317	65800	30500
0	98323	65800	30490
0	98329	65800	30480
0	98335	65800	30470
0	98341	65800	30460
0	98347	65800	30450
0	98353	65800	30440
0	98359	65800	30430
0	98365	65800	30420
0	98371	65800	30410
0	98377	65800	30400
0	98383	65800	30390
0	98389	65800	30380
0	98395	65800	30370
0	98401	65800	30360
0	98407	65800	30350
0	98413	65800	30340
0	98419	65800	30330
0	98425	65800	30320
0	98431	65800	30310
0	98437	65800	30300
0	98443	65800	30290
0	98449	65800	30280
0	98455	65800	30270
0	98461	65800	30260
0	98467	65800	30250
0	98473	65800	30240
0	98479	65800	30230
0	98485	65800	30220
0	98491	65800	30210
0	98497	65800	30200
0	98503	65800	30190
0	98509	65800	30180
0	98515	65800	30170
0	98521	65800	30160
0	98527	65800	30150
0	98533	65800	30140
0	98539	65800	30130
0	98545	65800	30120
0	98551	65800	30110
0	98557	65800	30100
0	98563	65800	30090
0	98569	65800	30080
0	98575	65800	30070
0	98581	65800	30060
0	98587	65800	30050
0	98593	65800	30040
0	98599	65800	30030
0	98605	65800	30020
0	98611	65800	30010
0	98617	65800	30000
0	98623	65800	29990
0	98629	65800	29980
0	98635	65800	29970
0	98641	65800	29960
0	98647	65800	29950
0	98653	65800	29940
0	98659	65800	29930
0	98665	65800	29920
0	98671	65800	29910
0	98677	65800	29900
0	98683	65800	29890
0	98689	65800	29880
0	98695	65800	29870
0	98701	65800	29860
0	98707	65800	29850
0	98713	65800	29840
0	98719	65800	29830
0	98725	65800	29820
0	98731	65800	29810
0	98737	65800	29800
0	98743	65800	29790
0	98749	65800	29780
0	98755	65800	29770
0	98761	65800	29760
0	98767	65800	29750
0	98773	65800	29740
0	98779	65800	29730
0	98785	65800	29720
0	98791	65800	29710
0	98797	65800	29700
0	98803	65800	29690
0	98809	65800	29680
0	98815	65800	29670
0	98821	65800	29660
0	98827	65800	29650
0	98833	65800	29640
0	98839	65800	29630
0	98845	65800	29620
0	98851	65800	29610
0	98857	65800	29600
0	98863	65800	29590
0	98869	65800	29580
0	98875	65800	29570
0	98881	65800	29560
0	98887	65800	29550
0	98893	65800	29540
0	98899	65800	29530
0	98905	65800	29520
0	98911	65800	29510
0	98917	65800	29500
0	98923	65800	29490
0	98929	65800	29480
0	98935	65800	29470
0	98941	65800	29460
0	98947	65800	29450
0	98953	65800	29440
0	98959	65800	29430
0	98965	65800	29420
0	98971	65800	29410
0	98977	65800	29400
0	98983	65800	29390
0	98989	65800	29380
0	98995	65800	29370
0	99001	65800	29360
0	99007	65800	29350
0	99013	65800	29340
0	99019	65800	29330
0	99025	65800	29320
0	99031	65800	29310
0	99037	65800	29300
0	99043	65800	29290
0	99049	65800	29280
0	99055	65800	29270
0	99061	65800	29260
0	99067	65800	29250
0	99073	65800	29240
0	99079	65800	29230
0	99085	65800	29220
0	99091	65800	29210
0	99097	65800	29200
0	99103	65800	29190
0	99109	65800	29180
0	99115	65800	29170
0	99121	65800	29160
0	99127	65800	29150
0	99133	65800	29140
0	99139	65800	29130
0	99145	65800	29120
0	99151	65800	29110
0	99157	65800	29100
0	99163	65800	29090
0	99169	65800	29080
0	99175	65800	29070
0	99181	65800	29060
0	99187	65800	29050
0	99193	65800	29040
0	99199	65800	29030
0	99205	65800	29020
0	99211	65800	29010
0	99217	65800	29000
0	99223	65800	28990
0	99229	65800	28980
0	99235	65800	28970
0	99241	65800	28960
0	99247	65800	28950
0	99253	65800	28940
0	99259	65800	28930
0	99265	65800	28920
0	99271	65800	28910
0	99277	65800	28900
0	99283	65800	28890
0	99289	65800	28880
0	99295	65800	28870
0	99301	65800	28860
0	99307	65800	28850
0	99313	65800	28840
0	99319	65800	28830
0	99325	65800	28820
0	99331	65800	28810
0	99337	65800	28800
0	99343	65800	28790
0	99349	65800	28780
0	99355	65800	28770
0	99361	65800	28760
0	99367	65800	28750
0	99373	65800	28740
0	99379	65800	28730
0	99385	65800	28720
0	99391	65800	28710
0	99397	65800	28700
0	99403	65800	28690
0	99409	65800	28680
0	99415	65800	28670
0	99421	65800	28660
0	99427	65800	28650
0	99433	65800	28640
0	99439	65800	28630
0	99445	65800	28620
0	99451	65800	28610
0	99457	65800	28600
0	99463	65800	28590
0	99469	65800	28580
0	99475	65800	28570
0	99481	65800	28560
0	99487	65800	28550
0	99493	65800	28540
0	99499	65800	28530
0	99505	65800	28520
0	99511	65800	28510
0	99517	65800	28500
0	99523	65800	28490
0	99529	65800	28480
0	99535	65800	28470
0	99541	65800	28460
0	99547	65800	28450
0	99553	65800	28440
0	99559	65800	28430
0	99565	65800	28420
0	99571	65800	28410
0	99577	65800	28400
0	99583	65800	28390
0	99589	65800	28380
0	99595	65800	28370
0	99601	65800	28360
0	99607	65800	28350
0	99613	65800	28340
0	99619	65800	28330
0	99625	65800	28320
0	99631	65800	28310
0	99637	65800	28300
0	99643	65800	28290
0	99649	65800	28280
0	99655	65800	28270
0	99661	65800	28260
0	99667	65800	28250
0	99673	65800	28240
0	99679	65800	28230
0	99685	65800	28220
0	99691	65800	28210
0	99697	65800	28200
0	99703	65800	28190
0	99709	65800	28180
0	99715	65800	28170
0	99721	65800	28160
0	99727	65800	28150
0	99733	65800	28140
0	99739	65800	28130
0	99745	65800	28120
0	99751	65800	28110
0	99757	65800	28100
0	99763	65800	28090
0	99769	65800	28080
0	99775	65800	28070
0	99781	65800	28060
0	99787	65800	28050
0	99793	65800	28040
0	99799	65800	28030
0	99805	65800	28020
0	99811	65800	28010
0	99817	65800	28000
0	99823	65800	27990
0	99829	65800	27980
0	99835	65800	27970
0	99841	65800	27960
0	99847	65800	27950
0	99853	65800	27940
0	99859	65800	27930
0	99865	65800	27920
0	99871	65800	27910
0	99877	65800	27900
0	99883	65800	27890
0	99889	65800	27880
0	99895	65800	27870
0	99901	65800	27860
0	99907	65800	27850
0	99913	65800	27840
0	99919	65800	27830
0	99925	65800	27820
0	99931	65800	27810
0	99937	65800	27800
0	99943	65800	27790
0	99949	65800	27780
0	99955	65800	27770
0	99961	65800	27760
0	99967	65800	27750
0	99973	65800	27740
0	99979	65800	27730
0	99985	65800	27720
0	99991	65800	27710
0	99997	65800	27700
0	100003	65800	27690
0	100009	65800	27680
0	100015	65800	27670
0	100021	65800	27660
0	100027	65800	27650
0	100033	65800	27640
0	100039	65800	27630
0	100045	65800	27620
0	100051	65800	27610
0	100057	65800	27600
0	100063	65800	27590
0	100069	65800	27580
0	100075	65800	27570
0	100081	65800	27560
0	100087	65800	27550
0	100093	65800	27540
0	100099	65800	27530
0	100105	65800	27520
0	100111	65800	27510
0	100117	65800	27500
0	100123	65800	27490
0	100129	65800	27480
0	100135	65800	27470
0	100141	65800	27460
0	100147	65800	27450
0	100153	65800	27440
0	100159	65800	27430
0	100165	65800	27420
0	100171	65800	27410
0	100177	65800	27400
0	100183	65800	27390
0	100189	65800	27380
0	100195	65800	27370
0	100201	65800	27360
0	100207	65800	27350
0	100213	65800	27340
0	100219	65800	27330
0	100225	65800	27320
0	100231	65800	27310
0	100237	65800	27300
0	100243	65800	27290
0	100249	65800	27280
0	100255	65800	27270
0	100261	65800	27260
0	100267	65800	27250
0	100273	65800	27240
0	100279	65800	27230
0	100285	65800	27220
0	100291	65800	27210
0	100297	65800	27200
0	100303	65800	27190
0	100309	65800	27180
0	100315	65800	27170
0	100321	65800	27160
0	100327	65800	27150
0	100333	65800	27140
0	100339	65800	27130
0	100345	65800	27120
0	100351	65800	27110
0	100357	65800	27100
0	100363	65800	27090
0	100369	65800	27080
0	100375	65800	27070
0	100381	65800	27060
0	100387	65800	27050
0	100393	65800	27040
0	100399	65800	27030
0	100405	65800	27020
0	100411	65800	27010
0	100417	65800	27000
0	100423	65800	26990
0	100429	65800	26980
0	100435	65800	26970
0	100441	65800	26960
0	100447	65800	26950
0	100453	65800	26940
0	100459	65800	26930
0	100465	65800	26920
0	100471	65800	26910
0	100477	65800	26900
0	100483	65800	26890
0	100489	65800	26880
[...]
0	147631	85446	17916
0	147637	85446	17906
0	147643	85446	17896
0	147649	85446	17886
0	147655	85446	17876
0	147661	85446	17866
0	147667	85446	17856
0	147673	85446	17846
0	147679	85446	17836
0	147685	85446	17826
0	147691	85446	17816
0	147697	85446	17806
0	147703	85446	17796
0	147709	85446	17786
0	147715	85446	17776
0	147721	85446	17766
0	147727	85446	17756
0	147733	85446	17746
0	147739	85446	17736
0	147745	85446	17726
0	147751	85446	17716
0	147757	85446	17706
0	147763	85446	17696
0	147769	85446	17686
0	147775	85446	17676
0	147781	85446	17666
0	147787	85446	17656
0	147793	85446	17646
0	147799	85446	17636
0	147805	85446	17626
0	147811	85446	17616
0	147817	85446	17606
0	147823	85446	17596
0	147829	85446	17586
0	147835	85446	17576
0	147841	85446	17566
0	147847	85446	17556
0	147853	85446	17546
0	147859	85446	17536
0	147865	85446	17526
0	147871	85446	17516
0	147877	85446	17506
0	147883	85446	17496
0	147889	85446	17486
0	147895	85446	17476
0	147901	85446	17466
0	147907	85446	17456
0	147913	85446	17446
0	147919	85446	17436
0	147925	85446	17426
0	147931	85446	17416
0	147937	85446	17406
0	147943	85446	17396
0	147949	85446	17386
0	147955	85446	17376
0	147961	85446	17366
0	147967	85446	17356
0	147973	85446	17346
0	147979	85446	17336
0	147985	85446	17326
0	147991	85446	17316
0	147997	85446	17306
0	148003	85446	17296
0	148009	85446	17286
0	148015	85446	17276
0	148021	85446	17266
0	148027	85446	17256
0	148033	85446	17246
0	148039	85446	17236
0	148045	85446	17226
0	148051	85446	17216
0	148057	85446	17206
0	148063	85446	17196
0	148069	85446	17186
0	148075	85446	17176
0	148081	85446	17166
0	148087	85446	17156
0	148093	85446	17146
0	148099	85446	17136
0	148105	85446	17126
0	148111	85446	17116
0	148117	85446	17106
0	148123	85446	17096
0	148129	85446	17086
0	148135	85446	17076
0	148141	85446	17066
0	148147	85446	17056
0	148153	85446	17046
0	148159	85446	17036
0	148165	85446	17026
0	148171	85446	17016
0	148177	85446	17006
0	148183	85446	16996
0	148189	85446	16986
0	148195	85446	16976
0	148201	85446	16966
0	148207	85446	16956
0	148213	85446	16946
0	148219	85446	16936
0	148225	85446	16926
0	148231	85446	16916
0	148237	85446	16906
0	148243	85446	16896
0	148249	85446	16886
0	148255	85446	16876
0	148261	85446	16866
0	148267	85446	16856
0	148273	85446	16846
0	148279	85446	16836
0	148285	85446	16826
0	148291	85446	16816
0	148297	85446	16806
0	148303	85446	16796
0	148309	85446	16786
0	148315	85446	16776
0	148321	85446	16766
0	148327	85446	16756
0	148333	85446	16746
0	148339	85446	16736
0	148345	85446	16726
0	148351	85446	16716
0	148357	85446	16706
0	148363	85446	16696
0	148369	85446	16686
0	148375	85446	16676
0	148381	85446	16666
0	148387	85446	16656
0	148393	85446	16646
0	148399	85446	16636
0	148405	85446	16626
0	148411	85446	16616
0	148417	85446	16606
0	148423	85446	16596
0	148429	85446	16586
0	148435	85446	16576
0	148441	85446	16566
0	148447	85446	16556
0	148453	85446	16546
0	148459	85446	16536
0	148465	85446	16526
0	148471	85446	16516
0	148477	85446	16506
0	148483	85446	16496
0	148489	85446	16486
0	148495	85446	16476
0	148501	85446	16466
0	148507	85446	16456
0	148513	85446	16446
0	148519	85446	16436
0	148525	85446	16426
0	148531	85446	16416
0	148537	85446	16406
0	148543	85446	16396
0	148549	85446	16386
0	148555	85446	16376
0	148561	85446	16366
0	148567	85446	16356
0	148573	85446	16346
0	148579	85446	16336
0	148585	85446	16326
0	148591	85446	16316
0	148597	85446	16306
0	148603	85446	16296
0	148609	85446	16286
0	148615	85446	16276
0	148621	85446	16266
0	148627	85446	16256
0	148633	85446	16246
0	148639	85446	16236
0	148645	85446	16226
0	148651	85446	16216
0	148657	85446	16206
0	148663	85446	16196
0	148669	85446	16186
0	148675	85446	16176
0	148681	85446	16166
0	148687	85446	16156
0	148693	85446	16146
0	148699	85446	16136
0	148705	85446	16126
0	148711	85446	16116
0	148717	85446	16106
0	148723	85446	16096
0	148729	85446	16086
0	148735	85446	16076
0	148741	85446	16066
0	148747	85446	16056
0	148753	85446	16046
0	148759	85446	16036
0	148765	85446	16026
0	148771	85446	16016
0	148777	85446	16006
0	148783	85446	15996
0	148789	85446	15986
0	148795	85446	15976
0	148801	85446	15966
0	148807	85446	15956
0	148813	85446	15946
0	148819	85446	15936
0	148825	85446	15926
0	148831	85446	15916
0	148837	85446	15906
0	148843	85446	15896
0	148849	85446	15886
0	148855	85446	15876
0	148861	85446	15866
0	148867	85446	15856
0	148873	85446	15846
0	148879	85446	15836
0	148885	85446	15826
0	148891	85446	15816
0	148897	85446	15806
0	148903	85446	15796
0	148909	85446	15786
0	148915	85446	15776
0	148921	85446	15766
0	148927	85446	15756
0	148933	85446	15746
0	148939	85446	15736
0	148945	85446	15726
0	148951	85446	15716
0	148957	85446	15706
0	148963	85446	15696
0	148969	85446	15686
0	148975	85446	15676
0	148981	85446	15666
0	148987	85446	15656
0	148993	85446	15646
0	148999	85446	15636
0	149005	85446	15626
0	149011	85446	15616
0	149017	85446	15606
0	149023	85446	15596
0	149029	85446	15586
0	149035	85446	15576
0	149041	85446	15566
0	149047	85446	15556
0	149053	85446	15546
0	149059	85446	15536
0	149065	85446	15526
0	149071	85446	15516
0	149077	85446	15506
0	149083	85446	15496
0	149089	85446	15486
0	149095	85446	15476
0	149101	85446	15466
0	149107	85446	15456
0	149113	85446	15446
0	149119	85446	15436
0	149125	85446	15426
0	149131	85446	15416
0	149137	85446	15406
0	149143	85446	15396
0	149149	85446	15386
0	149155	85446	15376
0	149161	85446	15366
0	149167	85446	15356
0	149173	85446	15346
0	149179	85446	15336
0	149185	85446	15326
0	149191	85446	15316
0	149197	85446	15306
0	149203	85446	15296
0	149209	85446	15286
0	149215	85446	15276
0	149221	85446	15266
0	149227	85446	15256
0	149233	85446	15246
0	149239	85446	15236
0	149245	85446	15226
0	149251	85446	15216
0	149257	85446	15206
0	149263	85446	15196
0	149269	85446	15186
0	149275	85446	15176
0	149281	85446	15166
0	149287	85446	15156
0	149293	85446	15146
0	149299	85446	15136
0	149305	85446	15126
0	149311	85446	15116
0	149317	85446	15106
0	149323	85446	15096
0	149329	85446	15086
0	149335	85446	15076
0	149341	85446	15066
0	149347	85446	15056
0	149353	85446	15046
0	149359	85446	15036
0	149365	85446	15026
0	149371	85446	15016
0	149377	85446	15006
0	149383	85446	14996
0	149389	85446	14986
0	149395	85446	14976
0	149401	85446	14966
0	149407	85446	14956
0	149413	85446	14946
0	149419	85446	14936
0	149425	85446	14926
0	149431	85446	14916
0	149437	85446	14906
0	149443	85446	14896
0	149449	85446	14886
0	149455	85446	14876
0	149461	85446	14866
0	149467	85446	14856
0	149473	85446	14846
0	149479	85446	14836
0	149485	85446	14826
0	149491	85446	14816
0	149497	85446	14806
0	149503	85446	14796
0	149509	85446	14786
0	149515	85446	14776
0	149521	85446	14766
0	149527	85446	14756
0	149533	85446	14746
0	149539	85446	14736
0	149545	85446	14726
0	149551	85446	14716
0	149557	85446	14706
0	149563	85446	14696
0	149569	85446	14686
0	149575	85446	14676
0	149581	85446	14666
0	149587	85446	14656
0	149593	85446	14646
0	149599	85446	14636
0	149605	85446	14626
0	149611	85446	14616
0	149617	85446	14606
0	149623	85446	14596
0	149629	85446	14586
0	149635	85446	14576
0	149641	85446	14566
0	149647	85446	14556
0	149653	85446	14546
0	149659	85446	14536
0	149665	85446	14526
0	149671	85446	14516
0	149677	85446	14506
0	149683	85446	14496
0	149689	85446	14486
0	149695	85446	14476
0	149701	85446	14466
0	149707	85446	14456
0	149713	85446	14446
0	149719	85446	14436
0	149725	85446	14426
0	149731	85446	14416
0	149737	85446	14406
0	149743	85446	14396
0	149749	85446	14386
0	149755	85446	14376
0	149761	85446	14366
0	149767	85446	14356
0	149773	85446	14346
0	149779	85446	14336
0	149785	85446	14326
0	149791	85446	14316
0	149797	85446	14306
0	149803	85446	14296
0	149809	85446	14286
0	149815	85446	14276
0	149821	85446	14266
0	149827	85446	14256
0	149833	85446	14246
0	149839	85446	14236
0	149845	85446	14226
0	149851	85446	14216
0	149857	85446	14206
0	149863	85446	14196
0	149869	85446	14186
0	149875	85446	14176
0	149881	85446	14166
0	149887	85446	14156
0	149893	85446	14146
0	149899	85446	14136
0	149905	85446	14126
0	149911	85446	14116
0	149917	85446	14106
0	149923	85446	14096
0	149929	85446	14086
0	149935	85446	14076
0	149941	85446	14066
0	149947	85446	14056
0	149953	85446	14046
0	149959	85446	14036
0	149965	85446	14026
0	149971	85446	14016
0	149977	85446	14006
0	149983	85446	13996
0	149989	85446	13986
0	149995	85446	13976
0	150001	85446	13966
0	150007	85446	13956
0	150013	85446	13946
0	150019	85446	13936
0	150025	85446	13926
0	150031	85446	13916
0	150037	85446	13906
0	150043	85446	13896
0	150049	85446	13886
0	150055	85446	13876
0	150061	85446	13866
0	150067	85446	13856
0	150073	85446	13846
0	150079	85446	13836
0	150085	85446	13826
0	150091	85446	13816
0	150097	85446	13806
0	150103	85446	13796
0	150109	85446	13786
0	150115	85446	13776
0	150121	85446	13766
0	150127	85446	13756
0	150133	85446	13746
0	150139	85446	13736
0	150145	85446	13726
0	150151	85446	13716
0	150157	85446	13706
0	150163	85446	13696
0	150169	85446	13686
0	150175	85446	13676
0	150181	85446	13666
0	150187	85446	13656
0	150193	85446	13646
0	150199	85446	13636
0	150205	85446	13626
0	150211	85446	13616
0	150217	85446	13606
0	150223	85446	13596
0	150229	85446	13586
0	150235	85446	13576
0	150241	85446	13566
0	150247	85446	13556
0	150253	85446	13546
0	150259	85446	13536
0	150265	85446	13526
0	150271	85446	13516
0	150277	85446	13506
0	150283	85446	13496
0	150289	85446	13486
0	150295	85446	13476
0	150301	85446	13466
0	150307	85446	13456
0	150313	85446	13446
0	150319	85446	13436
0	150325	85446	13426
0	150331	85446	13416
0	150337	85446	13406
0	150343	85446	13396
0	150349	85446	13386
0	150355	85446	13376
0	150361	85446	13366
0	150367	85446	13356
0	150373	85446	13346
0	150379	85446	13336
0	150385	85446	13326
0	150391	85446	13316
0	150397	85446	13306
0	150403	85446	13296
0	150409	85446	13286
0	150415	85446	13276
0	150421	85446	13266
0	150427	85446	13256
0	150433	85446	13246
0	150439	85446	13236
0	150445	85446	13226
0	150451	85446	13216
0	150457	85446	13206
0	150463	85446	13196
0	150469	85446	13186
0	150475	85446	13176
0	150481	85446	13166
0	150487	85446	13156
0	150493	85446	13146
0	150499	85446	13136
0	150505	85446	13126
0	150511	85446	13116
0	150517	85446	13106
0	150523	85446	13096
0	150529	85446	13086
0	150535	85446	13076
0	150541	85446	13066
0	150547	85446	13056
0	150553	85446	13046
0	150559	85446	13036
0	150565	85446	13026
0	150571	85446	13016
0	150577	85446	13006
0	150583	85446	12996
0	150589	85446	12986
0	150595	85446	12976
0	150601	85446	12966
0	150607	85446	12956
0	150613	85446	12946
0	150619	85446	12936
0	150625	85446	12926
0	150631	85446	12916
0	150637	85446	12906
0	150643	85446	12896
0	150649	85446	12886
0	150655	85446	12876
0	150661	85446	12866
0	150667	85446	12856
0	150673	85446	12846
0	150679	85446	12836
0	150685	85446	12826
0	150691	85446	12816
0	150697	85446	12806
0	150703	85446	12796
0	150709	85446	12786
0	150715	85446	12776
0	150721	85446	12766
0	150727	85446	12756
0	150733	85446	12746
0	150739	85446	12736
0	150745	85446	12726
0	150751	85446	12716
0	150757	85446	12706
0	150763	85446	12696
0	150769	85446	12686
0	150775	85446	12676
0	150781	85446	12666
0	150787	85446	12656
0	150793	85446	12646
0	150799	85446	12636
0	150805	85446	12626
0	150811	85446	12616
0	150817	85446	12606
0	150823	85446	12596
0	150829	85446	12586
0	150835	85446	12576
0	150841	85446	12566
0	150847	85446	12556
0	150853	85446	12546
0	150859	85446	12536
0	150865	85446	12526
0	150871	85446	12516
0	150877	85446	12506
0	150883	85446	12496
0	150889	85446	12486
0	150895	85446	12476
0	150901	85446	12466
0	150907	85446	12456
0	150913	85446	12446
0	150919	85446	12436
0	150925	85446	12426
0	150931	85446	12416
0	150937	85446	12406
0	150943	85446	12396
0	150949	85446	12386
0	150955	85446	12376
0	150961	85446	12366
0	150967	85446	12356
0	150973	85446	12346
0	150979	85446	12336
0	150985	85446	12326
0	150991	85446	12316
0	150997	85446	12306
0	151003	85446	12296
0	151009	85446	12286
0	151015	85446	12276
0	151021	85446	12266
0	151027	85446	12256
0	151033	85446	12246
0	151039	85446	12236
0	151045	85446	12226
0	151051	85446	12216
0	151057	85446	12206
0	151063	85446	12196
0	151069	85446	12186
0	151075	85446	12176
0	151081	85446	12166
0	151087	85446	12156
0	151093	85446	12146
0	151099	85446	12136
0	151105	85446	12126
0	151111	85446	12116
0	151117	85446	12106
0	151123	85446	12096
0	151129	85446	12086
0	151135	85446	12076
0	151141	85446	12066
0	151147	85446	12056
0	151153	85446	12046
0	151159	85446	12036
0	151165	85446	12026
0	151171	85446	12016
0	151177	85446	12006
0	151183	85446	11996
0	151189	85446	11986
0	151195	85446	11976
0	151201	85446	11966
0	151207	85446	11956
0	151213	85446	11946
0	151219	85446	11936
0	151225	85446	11926
0	151231	85446	11916
0	151237	85446	11906
0	151243	85446	11896
0	151249	85446	11886
0	151255	85446	11876
0	151261	85446	11866
0	151267	85446	11856
0	151273	85446	11846
0	151279	85446	11836
0	151285	85446	11826
0	151291	85446	11816
0	151297	85446	11806
0	151303	85446	11796
0	151309	85446	11786
0	151315	85446	11776
0	151321	85446	11766
0	151327	85446	11756
0	151333	85446	11746
0	151339	85446	11736
0	151345	85446	11726
0	151351	85446	11716
0	151357	85446	11706
0	151363	85446	11696
0	151369	85446	11686
0	151375	85446	11676
0	151381	85446	11666
0	151387	85446	11656
0	151393	85446	11646
0	151399	85446	11636
0	151405	85446	11626
0	151411	85446	11616
0	151417	85446	11606
0	151423	85446	11596
0	151429	85446	11586
0	151435	85446	11576
0	151441	85446	11566
0	151447	85446	11556
0	151453	85446	11546
0	151459	85446	11536
0	151465	85446	11526
0	151471	85446	11516
0	151477	85446	11506
0	151483	85446	11496
0	151489	85446	11486
0	151495	85446	11476
0	151501	85446	11466
0	151507	85446	11456
0	151513	85446	11446
0	151519	85446	11436
0	151525	85446	11426
0	151531	85446	11416
0	151537	85446	11406
0	151543	85446	11396
0	151549	85446	11386
0	151555	85446	11376
0	151561	85446	11366
0	151567	85446	11356
0	151573	85446	11346
0	151579	85446	11336
0	151585	85446	11326
0	151591	85446	11316
0	151597	85446	11306
0	151603	85446	11296
0	151609	85446	11286
0	151615	85446	11276
0	151621	85446	11266
0	151627	85446	11256
0	151633	85446	11246
0	151639	85446	11236
0	151645	85446	11226
0	151651	85446	11216
0	151657	85446	11206
0	151663	85446	11196
0	151669	85446	11186
0	151675	85446	11176
0	151681	85446	11166
0	151687	85446	11156
0	151693	85446	11146
0	151699	85446	11136
0	151705	85446	11126
0	151711	85446	11116
0	151717	85446	11106
0	151723	85446	11096
0	151729	85446	11086
0	151735	85446	11076
0	151741	85446	11066
0	151747	85446	11056
0	151753	85446	11046
0	151759	85446	11036
0	151765	85446	11026
0	151771	85446	11016
0	151777	85446	11006
0	151783	85446	10996
0	151789	85446	10986
0	151795	85446	10976
0	151801	85446	10966
0	151807	85446	10956
0	151813	85446	10946
0	151819	85446	10936
0	151825	85446	10926
0	151831	85446	10916
0	151837	85446	10906
0	151843	85446	10896
0	151849	85446	10886
0	151855	85446	10876
0	151861	85446	10866
0	151867	85446	10856
0	151873	85446	10846
0	151879	85446	10836
0	151885	85446	10826
0	151891	85446	10816
0	151897	85446	10806
0	151903	85446	10796
0	151909	85446	10786
0	151915	85446	10776
0	151921	85446	10766
0	151927	85446	10756
0	151933	85446	10746
0	151939	85446	10736
0	151945	85446	10726
0	151951	85446	10716
0	151957	85446	10706
0	151963	85446	10696
0	151969	85446	10686
0	151975	85446	10676
0	151981	85446	10666
0	151987	85446	10656
0	151993	85446	10646
0	151999	85446	10636
0	152005	85446	10626
0	152011	85446	10616
0	152017	85446	10606
0	152023	85446	10596
0	152029	85446	10586
0	152035	85446	10576
0	152041	85446	10566
0	152047	85446	10556
0	152053	85446	10546
0	152059	85446	10536
0	152065	85446	10526
0	152071	85446	10516
0	152077	85446	10506
0	152083	85446	10496
0	152089	85446	10486
0	152095	85446	10476
0	152101	85446	10466
0	152107	85446	10456
0	152113	85446	10446
0	152119	85446	10436
0	152125	85446	10426
0	152131	85446	10416
0	152137	85446	10406
0	152143	85446	10396
0	152149	85446	10386
0	152155	85446	10376
0	152161	85446	10366
0	152167	85446	10356
0	152173	85446	10346
0	152179	85446	10336
0	152185	85446	10326
0	152191	85446	10316
0	152197	85446	10306
0	152203	85446	10296
0	152209	85446	10286
0	152215	85446	10276
0	152221	85446	10266
0	152227	85446	10256
0	152233	85446	10246
0	152239	85446	10236
0	152245	85446	10226
0	152251	85446	10216
0	152257	85446	10206
0	152263	85446	10196
0	152269	85446	10186
0	152275	85446	10176
0	152281	85446	10166
0	152287	85446	10156
0	152293	85446	10146
0	152299	85446	10136
0	152305	85446	10126
0	152311	85446	10116
0	152317	85446	10106
0	152323	85446	10096
0	152329	85446	10086
0	152335	85446	10076
0	152341	85446	10066
0	152347	85446	10056
0	152353	85446	10046
0	152359	85446	10036
0	152365	85446	10026
0	152371	85446	10016
0	152377	85446	10006
0	152383	85446	9996
0	152389	85446	9986
0	152395	85446	9976
0	152401	85446	9966
0	152407	85446	9956
0	152413	85446	9946
0	152419	85446	9936
0	152425	85446	9926
0	152431	85446	9916
0	152437	85446	9906
0	152443	85446	9896
0	152449	85446	9886
0	152455	85446	9876
0	152461	85446	9866
0	152467	85446	9856
0	152473	85446	9846
0	152479	85446	9836
0	152485	85446	9826
0	152491	85446	9816
0	152497	85446	9806
0	152503	85446	9796
0	152509	85446	9786
0	152515	85446	9776
0	152521	85446	9766
0	152527	85446	9756
0	152533	85446	9746
0	152539	85446	9736
0	152545	85446	9726
0	152551	85446	9716
0	152557	85446	9706
0	152563	85446	9696
0	152569	85446	9686
0	152575	85446	9676
0	152581	85446	9666
0	152587	85446	9656
0	152593	85446	9646
0	152599	85446	9636
0	152605	85446	9626
0	152611	85446	9616
0	152617	85446	9606
0	152623	85446	9596
0	152629	85446	9586
0	152635	85446	9576
0	152641	85446	9566
0	152647	85446	9556
0	152653	85446	9546
0	152659	85446	9536
0	152665	85446	9526
0	152671	85446	9516
0	152677	85446	9506
0	152683	85446	9496
0	152689	85446	9486
0	152695	85446	9476
0	152701	85446	9466
0	152707	85446	9456
0	152713	85446	9446
0	152719	85446	9436
0	152725	85446	9426
0	152731	85446	9416
0	152737	85446	9406
0	152743	85446	9396
0	152749	85446	9386
0	152755	85446	9376
0	152761	85446	9366
0	152767	85446	9356
0	152773	85446	9346
0	152779	85446	9336
0	152785	85446	9326
0	152791	85446	9316
0	152797	85446	9306
0	152803	85446	9296
0	152809	85446	9286
0	152815	85446	9276
0	152821	85446	9266
0	152827	85446	9256
0	152833	85446	9246
0	152839	85446	9236
0	152845	85446	9226
0	152851	85446	9216
0	152857	85446	9206
0	152863	85446	9196
0	152869	85446	9186
0	152875	85446	9176
0	152881	85446	9166
0	152887	85446	9156
0	152893	85446	9146
0	152899	85446	9136
0	152905	85446	9126
0	152911	85446	9116
0	152917	85446	9106
0	152923	85446	9096
0	152929	85446	9086
0	152935	85446	9076
0	152941	85446	9066
0	152947	85446	9056
0	152953	85446	9046
0	152959	85446	9036
0	152965	85446	9026
0	152971	85446	9016
0	152977	85446	9006
0	152983	85446	8996
0	152989	85446	8986
0	152995	85446	8976
0	153001	85446	8966
0	153007	85446	8956
0	153013	85446	8946
0	153019	85446	8936
0	153025	85446	8926
0	153031	85446	8916
0	153037	85446	8906
0	153043	85446	8896
0	153049	85446	8886
0	153055	85446	8876
0	153061	85446	8866
0	153067	85446	8856
0	153073	85446	8846
0	153079	85446	8836
0	153085	85446	8826
0	153091	85446	8816
0	153097	85446	8806
0	153103	85446	8796
0	153109	85446	8786
0	153115	85446	8776
0	153121	85446	8766
0	153127	85446	8756
0	153133	85446	8746
0	153139	85446	8736
0	153145	85446	8726
0	153151	85446	8716
0	153157	85446	8706
0	153163	85446	8696
0	153169	85446	8686
0	153175	85446	8676
0	153181	85446	8666
0	153187	85446	8656
0	153193	85446	8646
0	153199	85446	8636
0	153205	85446	8626
0	153211	85446	8616
0	153217	85446	8606
0	153223	85446	8596
0	153229	85446	8586
0	153235	85446	8576
0	153241	85446	8566
0	153247	85446	8556
0	153253	85446	8546
0	153259	85446	8536
0	153265	85446	8526
0	153271	85446	8516
0	153277	85446	8506
0	153283	85446	8496
0	153289	85446	8486
0	153295	85446	8476
0	153301	85446	8466
0	153307	85446	8456
0	153313	85446	8446
0	153319	85446	8436
0	153325	85446	8426
0	153331	85446	8416
0	153337	85446	8406
0	153343	85446	8396
0	153349	85446	8386
0	153355	85446	8376
0	153361	85446	8366
0	153367	85446	8356
0	153373	85446	8346
0	153379	85446	8336
0	153385	85446	8326

