version 2
run General-0-20250129-19:58:17-209734
attr configname General
attr datetime 20250129-19:58:17
attr experiment General
attr inifile shaw_false.ini
attr iterationvars ""
attr iterationvarsf ""
attr measurement ""
attr network src.dtnsim
attr processid 209734
attr repetition 0
attr replication #0
attr resultdir results
attr runnumber 0
attr seedset 0
param dtnsim.central.contactsFile "\"contactPlan/Contacts.txt\""
param dtnsim.central.contactsFile_A "\"contactPlan/Contacts.txt\""
param dtnsim.central.contactsFile_B "\"contactPlan/Contacts.txt\""
param dtnsim.central.contactIdsToDelete "\"6 7 8 10 13 21 28 30 34 40 44 47 48 54 55 56 57 70 73 75 77 81 83 84 90 92 106 109 116 117 118 127 128 129 136 137 152 160 171 172 175 176 177 184 189 190 193 194 196 197 200 206 210 213 224 227 228 230 250 254 256 257 262 266 272 282 287 288 289 290 291 292 295 310 313 314 315 316 321 322 325 327 329 333 341 346 351 352 355 356 361 364 369 376 378 383 386 389 393 397\""
param dtnsim.central.contactIdsToDelete_from_celestialA "\"7 8 21 28 34 44 47 48 54 57 70 75 77 81 92 109 116 128 129 136 137 152 172 175 176 177 184 189 190 193 194 196 206 213 224 228 250 254 257 262 282 287 291 292 295 310 314 325 329 333 341 346 355 361 364 369 376 383 386 393\""
param dtnsim.central.contactIdsToDelete_from_celestialB "\"6 10 13 30 40 55 56 73 83 84 90 106 117 118 127 160 171 197 200 210 227 230 256 266 272 288 289 290 313 315 316 321 322 327 351 352 356 378 389 397\""
param dtnsim.central.celestialA_nodes "\"1 2 3\""
param dtnsim.central.celestialB_nodes "\"4 5 6\""
param dtnsim.central.locallyfaultsAware false
param dtnsim.central.mode_two_celestial true
param dtnsim.central.faultsAware false
param dtnsim.nodesNumber 6
param dtnsim.node[1].icon "\"receiverdish\""
param dtnsim.node[2..5].icon "\"satellite\""
param dtnsim.node[6].icon "\"receiverdish\""
param dtnsim.node[*].dtn.routing "\"cgrModel350\""
param dtnsim.node[*].dtn.routingType "\"routeListType:allPaths-firstEnding,volumeAware:allContacts,extensionBlock:on,contactPlan:global\""
param dtnsim.node[1].app.enable true
param dtnsim.node[1].app.custodyTransfer true
param dtnsim.node[1].app.bundlesNumber "\"400\""
param dtnsim.node[1].app.start "\"0\""
param dtnsim.node[1].app.destinationEid "\"6\""
param dtnsim.node[1].app.size "\"1500\""
param dtnsim.node[1].app.interval 1
param dtnsim.node[*].app.custodyTimeout 100000000000000
param dtnsim.node[1].app.ttl 400

vector 0 dtnsim.node[6].app appBundleReceivedDelayvec:vector ETV
attr interpolationmode none
attr source appBundleReceivedDelay
attr title "appBundleReceivedDelayvec, vector"
0	767	128.47	1.47
0	801	129.47	1.47
0	838	130.47	1.47
0	873	131.47	1.47
0	910	132.47	1.47
0	938	133.47	1.47
0	1326	202.47	1.47
0	1358	203.47	1.47
0	1392	204.47	1.47
0	1424	205.47	1.47
0	1456	206.47	1.47
0	1489	207.47	1.47
0	1523	208.47	1.47
0	1559	209.47	1.47
0	1605	210.47	1.47
0	1650	211.47	1.47
0	1695	212.47	1.47
0	1746	213.47	1.47
0	1793	214.47	1.47
0	1839	215.47	1.47
0	1878	216.47	1.47
0	1916	217.47	1.47
0	1954	218.47	1.47
0	1992	219.47	1.47
0	2029	220.47	1.47
0	2063	221.47	1.47
0	2558	248.6	1.6
0	2600	249.6	1.6
0	2642	250.6	1.6
0	2684	251.6	1.6
0	2726	252.6	1.6
0	2769	253.6	1.6
0	3384	291.47	1.47
0	3427	292.47	1.47
0	3472	293.47	1.47
0	3517	294.47	1.47
0	3563	295.47	1.47
0	3609	296.47	1.47
0	3654	297.47	1.47
0	3699	298.47	1.47
0	3744	299.47	1.47
0	3802	300.47	1.47
0	3874	301.47	101.47
0	3875	301.47	1.47
0	3965	302.47	101.47
0	3966	302.47	101.47
0	3967	302.47	1.47
0	4064	303.47	101.47
0	4065	303.47	101.47
0	4066	303.47	1.47
0	4166	304.47	101.47
0	4167	304.47	101.47
0	4168	304.47	1.47
0	4266	305.47	101.47
0	4267	305.47	101.47
0	4268	305.47	1.47
0	4366	306.47	101.47
0	4367	306.47	101.47
0	4368	306.47	1.47
0	4466	307.47	101.47
0	4467	307.47	101.47
0	4468	307.47	1.47
0	4566	308.47	101.47
0	4567	308.47	101.47
0	4568	308.47	1.47
0	4653	309.47	101.47
0	4654	309.47	101.47
0	4655	309.47	1.47
0	4730	310.47	101.47
0	4731	310.47	1.47
0	4801	311.47	101.47
0	4802	311.47	1.47
0	4867	312.47	101.47
0	4868	312.47	1.47
0	4924	313.47	1.47
0	4973	314.47	1.47
0	5032	315.47	1.47
0	5101	316.47	101.47
0	5102	316.47	1.47
0	5180	317.47	101.47
0	5181	317.47	1.47
0	5258	318.47	101.47
0	5259	318.47	1.47
0	5336	319.47	101.47
0	5337	319.47	1.47
0	5762	329.57	1.57
0	5809	330.47	1.47
0	5837	331.47	1.47
0	5986	342.47	101.47
0	5987	342.47	1.47
0	6070	343.47	101.47
0	6071	343.47	1.47
0	6158	344.47	101.47
0	6159	344.47	1.47
0	6246	345.47	101.47
0	6247	345.47	1.47
0	6334	346.47	101.47
0	6335	346.47	1.47
0	6411	347.47	101.47
0	6412	347.47	1.47
0	6479	348.47	1.47
0	6536	349.47	1.47
0	6594	350.47	1.47
0	6647	351.47	1.47
0	6690	352.47	1.47
0	6728	353.47	1.47
0	6765	354.47	1.47
0	6801	355.47	1.47
0	6837	356.47	1.47
0	6873	357.47	1.47
0	6912	358.47	1.47
0	6951	359.47	1.47
0	6990	360.47	1.47
0	7027	361.47	1.47
0	7064	362.47	1.47
0	7101	363.47	1.47
0	7151	364.47	1.47
0	7208	365.47	101.47
0	7209	365.47	1.47
0	7271	366.47	101.47
0	7272	366.47	1.47
0	7334	367.47	101.47
0	7335	367.47	1.47
0	7397	368.47	101.47
0	7398	368.47	1.47
0	7460	369.47	101.47
0	7461	369.47	1.47
0	7526	370.47	101.47
0	7527	370.47	1.47
0	7590	371.47	101.47
0	7591	371.47	1.47
0	7655	372.47	101.47
0	7656	372.47	1.47
0	7718	373.47	101.47
0	7719	373.47	1.47
0	7780	374.47	101.47
0	7781	374.47	1.47
0	7842	375.47	101.47
0	7843	375.47	1.47
0	7904	376.47	101.47
0	7905	376.47	1.47
0	7966	377.47	101.47
0	7967	377.47	1.47
0	8015	378.47	101.47
0	8016	378.47	1.47
0	8057	379.47	1.47
0	8093	380.47	1.47
0	8129	381.47	1.47
0	8168	382.47	1.47
0	8205	383.47	1.47
0	8242	384.47	1.47
0	8279	385.47	1.47
0	8316	386.47	1.47
0	8367	387.9	1.9
0	8425	388.9	1.9
0	8483	389.9	1.9
0	8525	390.9	1.9

