version 2
run General-0-20250127-19:45:51-3901
attr configname General
attr datetime 20250127-19:45:51
attr experiment General
attr inifile shaw_exist.ini
attr iterationvars ""
attr iterationvarsf ""
attr measurement ""
attr network src.dtnsim
attr processid 3901
attr repetition 0
attr replication #0
attr resultdir results
attr runnumber 0
attr seedset 0
param dtnsim.central.contactsFile "\"contactPlan/Contacts.txt\""
param dtnsim.central.contactsFile_A "\"contactPlan/Contacts_A.txt\""
param dtnsim.central.contactsFile_B "\"contactPlan/Contacts_B.txt\""
param dtnsim.central.contactIdsToDelete "\"7 9 15 16 18 21 24 25 45 50 53 56 59 66 68 77 79 81 91 94 95 96 97 102 106 111 115 122 127 128 129 130 131 132 134 135 136 137 139 148 150 152 153 156 161 162 164 165 168 172 173 182 185 186 199 200 205 211 214 220 231 234 237 243 244 247 249 252 256 257 262 268 280 283 291 293 298 302 304 316 329 330 331 335 336 348 349 358 359 360 361 366 368 371 373 376 380 383 384 388\""
param dtnsim.central.contactIdsToDelete_from_celestialA "\"9 15 25 50 53 56 59 66 77 79 95 96 97 102 106 127 129 132 136 137 139 148 156 161 165 182 186 199 205 220 234 237 244 247 256 257 280 283 291 293 298 304 316 331 335 349 360 368 371 373 380 384 388\""
param dtnsim.central.contactIdsToDelete_from_celestialB "\"7 16 18 21 24 45 68 81 91 94 111 115 122 128 130 131 134 135 150 152 153 162 164 168 172 173 185 200 211 214 231 243 249 252 262 268 302 329 330 336 348 358 359 361 366 376 383\""
param dtnsim.central.celestialA_nodes "\"1 2 3\""
param dtnsim.central.celestialB_nodes "\"4 5 6\""
param dtnsim.central.locallyfaultsAware true
param dtnsim.central.mode_two_celestial true
param dtnsim.central.faultsAware false
param dtnsim.nodesNumber 6
param dtnsim.node[1].icon "\"receiverdish\""
param dtnsim.node[2..5].icon "\"satellite\""
param dtnsim.node[6].icon "\"receiverdish\""
param dtnsim.node[*].dtn.routing "\"cgrModel350\""
param dtnsim.node[*].dtn.routingType "\"routeListType:allPaths-firstEnding,volumeAware:allContacts,extensionBlock:on,contactPlan:global\""
param dtnsim.node[1].app.enable true
param dtnsim.node[1].app.custodyTransfer true
param dtnsim.node[1].app.bundlesNumber "\"2000\""
param dtnsim.node[1].app.start "\"0\""
param dtnsim.node[1].app.destinationEid "\"6\""
param dtnsim.node[1].app.size "\"1500\""
param dtnsim.node[1].app.interval 10
param dtnsim.node[*].app.custodyTimeout 10000
param dtnsim.node[1].app.ttl 10000

vector 0 dtnsim.node[6].app appBundleReceivedDelayvec:vector ETV
attr interpolationmode none
attr source appBundleReceivedDelay
attr title "appBundleReceivedDelayvec, vector"
0	1638	531.21	531.21
0	1639	531.21	521.21
0	1640	531.21	511.21
0	1641	531.21	501.21
0	1642	531.21	491.21
0	1643	531.21	481.21
0	1644	531.21	471.21
0	1645	531.21	461.21
0	1646	531.21	451.21
0	1647	531.21	441.21
0	1648	531.21	431.21
0	1649	531.21	421.21
0	1650	531.21	411.21
0	1651	531.21	401.21
0	1652	531.21	391.21
0	1653	531.21	381.21
0	1654	531.21	371.21
0	1655	531.21	361.21
0	1656	531.21	351.21
0	1657	531.21	341.21
0	1658	531.21	331.21
0	1659	531.21	321.21
0	1660	531.21	311.21
0	1661	531.21	301.21
0	1662	531.21	291.21
0	1663	531.21	281.21
0	1664	531.21	271.21
0	1665	531.21	261.21
0	1666	531.21	251.21
0	1667	531.21	241.21
0	1668	531.21	231.21
0	1669	531.21	221.21
0	1670	531.21	211.21
0	1671	531.21	201.21
0	1884	540.21	200.21
0	1936	550.21	200.21
0	1986	560.21	200.21
0	2039	570.21	200.21
0	2092	580.21	200.21
0	2143	590.21	200.21
0	2194	600.21	200.21
0	2245	610.21	200.21
0	2296	620.21	200.21
0	2347	630.21	200.21
0	2874	631.21	631.21
0	2875	631.21	621.21
0	2876	631.21	611.21
0	2877	631.21	601.21
0	2878	631.21	591.21
0	2879	631.21	581.21
0	2880	631.21	571.21
0	2881	631.21	561.21
0	2882	631.21	551.21
0	2883	631.21	541.21
0	2884	631.21	531.21
0	2885	631.21	521.21
0	2886	631.21	511.21
0	2887	631.21	501.21
0	2888	631.21	491.21
0	2889	631.21	481.21
0	2890	631.21	471.21
0	2891	631.21	461.21
0	2892	631.21	451.21
0	2893	631.21	441.21
0	2894	631.21	431.21
0	2895	631.21	421.21
0	2896	631.21	411.21
0	2897	631.21	401.21
0	2898	631.21	391.21
0	2899	631.21	381.21
0	2900	631.21	371.21
0	2901	631.21	361.21
0	2902	631.21	351.21
0	2903	631.21	341.21
0	2904	631.21	331.21
0	2905	631.21	321.21
0	2906	631.21	311.21
0	2907	631.21	301.21
0	3136	640.21	300.21
0	3137	640.21	200.21
0	3208	650.21	300.21
0	3209	650.21	200.21
0	3280	660.21	300.21
0	3281	660.21	200.21
0	3352	670.21	300.21
0	3353	670.21	200.21
0	3424	680.21	300.21
0	3425	680.21	200.21
0	3496	690.21	300.21
0	3497	690.21	200.21
0	3568	700.21	300.21
0	3569	700.21	200.21
0	3640	710.21	300.21
0	3641	710.21	200.21
0	3712	720.21	300.21
0	3713	720.21	200.21
0	3784	730.21	300.21
0	3785	730.21	200.21
0	4317	731.21	731.21
0	4318	731.21	721.21
0	4319	731.21	711.21
0	4320	731.21	701.21
0	4321	731.21	691.21
0	4322	731.21	681.21
0	4323	731.21	671.21
0	4324	731.21	661.21
0	4325	731.21	651.21
0	4326	731.21	641.21
0	4327	731.21	631.21
0	4328	731.21	621.21
0	4329	731.21	611.21
0	4330	731.21	601.21
0	4331	731.21	591.21
0	4332	731.21	581.21
0	4333	731.21	571.21
0	4334	731.21	561.21
0	4335	731.21	551.21
0	4336	731.21	541.21
0	4337	731.21	531.21
0	4338	731.21	521.21
0	4339	731.21	511.21
0	4340	731.21	501.21
0	4341	731.21	491.21
0	4342	731.21	481.21
0	4343	731.21	471.21
0	4344	731.21	461.21
0	4345	731.21	451.21
0	4346	731.21	441.21
0	4347	731.21	431.21
0	4348	731.21	421.21
0	4349	731.21	411.21
0	4350	731.21	401.21
0	4662	740.21	400.21
0	4663	740.21	300.21
0	4664	740.21	200.21
0	4757	750.21	400.21
0	4758	750.21	300.21
0	4759	750.21	200.21
0	4852	760.21	400.21
0	4853	760.21	300.21
0	4854	760.21	200.21
0	4947	770.21	400.21
0	4948	770.21	300.21
0	4949	770.21	200.21
0	5042	780.21	400.21
0	5043	780.21	300.21
0	5044	780.21	200.21
0	5137	790.21	400.21
0	5138	790.21	300.21
0	5139	790.21	200.21
0	5232	800.21	400.21
0	5233	800.21	300.21
0	5234	800.21	200.21
0	5327	810.21	400.21
0	5328	810.21	300.21
0	5329	810.21	200.21
0	5422	820.21	400.21
0	5423	820.21	300.21
0	5424	820.21	200.21
0	5517	830.21	400.21
0	5518	830.21	300.21
0	5519	830.21	200.21
0	5952	831.21	831.21
0	5953	831.21	821.21
0	5954	831.21	811.21
0	5955	831.21	801.21
0	5956	831.21	791.21
0	5957	831.21	781.21
0	5958	831.21	771.21
0	5959	831.21	761.21
0	5960	831.21	751.21
0	5961	831.21	741.21
0	5962	831.21	731.21
0	5963	831.21	721.21
0	5964	831.21	711.21
0	5965	831.21	701.21
0	5966	831.21	691.21
0	5967	831.21	681.21
0	5968	831.21	671.21
0	5969	831.21	661.21
0	5970	831.21	651.21
0	5971	831.21	641.21
0	5972	831.21	631.21
0	5973	831.21	621.21
0	5974	831.21	611.21
0	5975	831.21	601.21
0	5976	831.21	591.21
0	5977	831.21	581.21
0	5978	831.21	571.21
0	5979	831.21	561.21
0	5980	831.21	551.21
0	5981	831.21	541.21
0	5982	831.21	531.21
0	5983	831.21	521.21
0	5984	831.21	511.21
0	5985	831.21	501.21
0	6309	840.21	500.21
0	6310	840.21	400.21
0	6311	840.21	300.21
0	6312	840.21	200.21
0	6424	850.21	500.21
0	6425	850.21	400.21
0	6426	850.21	300.21
0	6427	850.21	200.21
0	6539	860.21	500.21
0	6540	860.21	400.21
0	6541	860.21	300.21
0	6542	860.21	200.21
0	6654	870.21	500.21
0	6655	870.21	400.21
0	6656	870.21	300.21
0	6657	870.21	200.21
0	6769	880.21	500.21
0	6770	880.21	400.21
0	6771	880.21	300.21
0	6772	880.21	200.21
0	6884	890.21	500.21
0	6885	890.21	400.21
0	6886	890.21	300.21
0	6887	890.21	200.21
0	6999	900.21	500.21
0	7000	900.21	400.21
0	7001	900.21	300.21
0	7002	900.21	200.21
0	7114	910.21	500.21
0	7115	910.21	400.21
0	7116	910.21	300.21
0	7117	910.21	200.21
0	7229	920.21	500.21
0	7230	920.21	400.21
0	7231	920.21	300.21
0	7232	920.21	200.21
0	7344	930.21	500.21
0	7345	930.21	400.21
0	7346	930.21	300.21
0	7347	930.21	200.21
0	7753	931.21	931.21
0	7754	931.21	921.21
0	7755	931.21	911.21
0	7756	931.21	901.21
0	7757	931.21	891.21
0	7758	931.21	881.21
0	7759	931.21	871.21
0	7760	931.21	861.21
0	7761	931.21	851.21
0	7762	931.21	841.21
0	7763	931.21	831.21
0	7764	931.21	821.21
0	7765	931.21	811.21
0	7766	931.21	801.21
0	7767	931.21	791.21
0	7768	931.21	781.21
0	7769	931.21	771.21
0	7770	931.21	761.21
0	7771	931.21	751.21
0	7772	931.21	741.21
0	7773	931.21	731.21
0	7774	931.21	721.21
0	7775	931.21	711.21
0	7776	931.21	701.21
0	7777	931.21	691.21
0	7778	931.21	681.21
0	7779	931.21	671.21
0	7780	931.21	661.21
0	7781	931.21	651.21
0	7782	931.21	641.21
0	7783	931.21	631.21
0	7784	931.21	621.21
0	7785	931.21	611.21
0	7786	931.21	601.21
0	8121	940.21	600.21
0	8122	940.21	500.21
0	8123	940.21	400.21
0	8124	940.21	300.21
0	8125	940.21	200.21
0	8255	950.21	600.21
0	8256	950.21	500.21
0	8257	950.21	400.21
0	8258	950.21	300.21
0	8259	950.21	200.21
0	8389	960.21	600.21
0	8390	960.21	500.21
0	8391	960.21	400.21
0	8392	960.21	300.21
0	8393	960.21	200.21
0	8523	970.21	600.21
0	8524	970.21	500.21
0	8525	970.21	400.21
0	8526	970.21	300.21
0	8527	970.21	200.21
0	8657	980.21	600.21
0	8658	980.21	500.21
0	8659	980.21	400.21
0	8660	980.21	300.21
0	8661	980.21	200.21
0	8791	990.21	600.21
0	8792	990.21	500.21
0	8793	990.21	400.21
0	8794	990.21	300.21
0	8795	990.21	200.21
0	8925	1000.21	600.21
0	8926	1000.21	500.21
0	8927	1000.21	400.21
0	8928	1000.21	300.21
0	8929	1000.21	200.21
0	9059	1010.21	600.21
0	9060	1010.21	500.21
0	9061	1010.21	400.21
0	9062	1010.21	300.21
0	9063	1010.21	200.21
0	9193	1020.21	600.21
0	9194	1020.21	500.21
0	9195	1020.21	400.21
0	9196	1020.21	300.21
0	9197	1020.21	200.21
0	9327	1030.21	600.21
0	9328	1030.21	500.21
0	9329	1030.21	400.21
0	9330	1030.21	300.21
0	9331	1030.21	200.21
0	9564	1040.21	600.21
0	9565	1040.21	500.21
0	9566	1040.21	400.21
0	9567	1040.21	300.21
0	9568	1040.21	200.21
0	9701	1050.21	600.21
0	9702	1050.21	500.21
0	9703	1050.21	400.21
0	9704	1050.21	300.21
0	9705	1050.21	200.21
0	9838	1060.21	600.21
0	9839	1060.21	500.21
0	9840	1060.21	400.21
0	9841	1060.21	300.21
0	9842	1060.21	200.21
0	9975	1070.21	600.21
0	9976	1070.21	500.21
0	9977	1070.21	400.21
0	9978	1070.21	300.21
0	9979	1070.21	200.21
0	10112	1080.21	600.21
0	10113	1080.21	500.21
0	10114	1080.21	400.21
0	10115	1080.21	300.21
0	10116	1080.21	200.21
0	10249	1090.21	600.21
0	10250	1090.21	500.21
0	10251	1090.21	400.21
0	10252	1090.21	300.21
0	10253	1090.21	200.21
0	10386	1100.21	600.21
0	10387	1100.21	500.21
0	10388	1100.21	400.21
0	10389	1100.21	300.21
0	10390	1100.21	200.21
0	10523	1110.21	600.21
0	10524	1110.21	500.21
0	10525	1110.21	400.21
0	10526	1110.21	300.21
0	10527	1110.21	200.21
0	10660	1120.21	600.21
0	10661	1120.21	500.21
0	10662	1120.21	400.21
0	10663	1120.21	300.21
0	10664	1120.21	200.21
0	10797	1130.21	600.21
0	10798	1130.21	500.21
0	10799	1130.21	400.21
0	10800	1130.21	300.21
0	10801	1130.21	200.21
0	11002	1140.21	600.21
0	11003	1140.21	500.21
0	11004	1140.21	400.21
0	11005	1140.21	300.21
0	11006	1140.21	200.21
0	11141	1150.21	600.21
0	11142	1150.21	500.21
0	11143	1150.21	400.21
0	11144	1150.21	300.21
0	11145	1150.21	200.21
0	11280	1160.21	600.21
0	11281	1160.21	500.21
0	11282	1160.21	400.21
0	11283	1160.21	300.21
0	11284	1160.21	200.21
0	11419	1170.21	600.21
0	11420	1170.21	500.21
0	11421	1170.21	400.21
0	11422	1170.21	300.21
0	11423	1170.21	200.21
0	11558	1180.21	600.21
0	11559	1180.21	500.21
0	11560	1180.21	400.21
0	11561	1180.21	300.21
0	11562	1180.21	200.21
0	11697	1190.21	600.21
0	11698	1190.21	500.21
0	11699	1190.21	400.21
0	11700	1190.21	300.21
0	11701	1190.21	200.21
0	11836	1200.21	600.21
0	11837	1200.21	500.21
0	11838	1200.21	400.21
0	11839	1200.21	300.21
0	11840	1200.21	200.21
0	11975	1210.21	600.21
0	11976	1210.21	500.21
0	11977	1210.21	400.21
0	11978	1210.21	300.21
0	11979	1210.21	200.21
0	12114	1220.21	600.21
0	12115	1220.21	500.21
0	12116	1220.21	400.21
0	12117	1220.21	300.21
0	12118	1220.21	200.21
0	12253	1230.21	600.21
0	12254	1230.21	500.21
0	12255	1230.21	400.21
0	12256	1230.21	300.21
0	12257	1230.21	200.21
0	12392	1240.21	600.21
0	12393	1240.21	500.21
0	12394	1240.21	400.21
0	12395	1240.21	300.21
0	12396	1240.21	200.21
0	12531	1250.21	600.21
0	12532	1250.21	500.21
0	12533	1250.21	400.21
0	12534	1250.21	300.21
0	12535	1250.21	200.21
0	12670	1260.21	600.21
0	12671	1260.21	500.21
0	12672	1260.21	400.21
0	12673	1260.21	300.21
0	12674	1260.21	200.21
0	12809	1270.21	600.21
0	12810	1270.21	500.21
0	12811	1270.21	400.21
0	12812	1270.21	300.21
0	12813	1270.21	200.21
0	12948	1280.21	600.21
0	12949	1280.21	500.21
0	12950	1280.21	400.21
0	12951	1280.21	300.21
0	12952	1280.21	200.21
0	13087	1290.21	600.21
0	13088	1290.21	500.21
0	13089	1290.21	400.21
0	13090	1290.21	300.21
0	13091	1290.21	200.21
0	13226	1300.21	600.21
0	13227	1300.21	500.21
0	13228	1300.21	400.21
0	13229	1300.21	300.21
0	13230	1300.21	200.21
0	13365	1310.21	600.21
0	13366	1310.21	500.21
0	13367	1310.21	400.21
0	13368	1310.21	300.21
0	13369	1310.21	200.21
0	13504	1320.21	600.21
0	13505	1320.21	500.21
0	13506	1320.21	400.21
0	13507	1320.21	300.21
0	13508	1320.21	200.21
0	13643	1330.21	600.21
0	13644	1330.21	500.21
0	13645	1330.21	400.21
0	13646	1330.21	300.21
0	13647	1330.21	200.21
0	13782	1340.21	600.21
0	13783	1340.21	500.21
0	13784	1340.21	400.21
0	13785	1340.21	300.21
0	13786	1340.21	200.21
0	13921	1350.21	600.21
0	13922	1350.21	500.21
0	13923	1350.21	400.21
0	13924	1350.21	300.21
0	13925	1350.21	200.21
0	14060	1360.21	600.21
0	14061	1360.21	500.21
0	14062	1360.21	400.21
0	14063	1360.21	300.21
0	14064	1360.21	200.21
0	14199	1370.21	600.21
0	14200	1370.21	500.21
0	14201	1370.21	400.21
0	14202	1370.21	300.21
0	14203	1370.21	200.21
0	14338	1380.21	600.21
0	14339	1380.21	500.21
0	14340	1380.21	400.21
0	14341	1380.21	300.21
0	14342	1380.21	200.21
0	14477	1390.21	600.21
0	14478	1390.21	500.21
0	14479	1390.21	400.21
0	14480	1390.21	300.21
0	14481	1390.21	200.21
0	14616	1400.21	600.21
0	14617	1400.21	500.21
0	14618	1400.21	400.21
0	14619	1400.21	300.21
0	14620	1400.21	200.21
0	14755	1410.21	600.21
0	14756	1410.21	500.21
0	14757	1410.21	400.21
0	14758	1410.21	300.21
0	14759	1410.21	200.21
0	14894	1420.21	600.21
0	14895	1420.21	500.21
0	14896	1420.21	400.21
0	14897	1420.21	300.21
0	14898	1420.21	200.21
0	15033	1430.21	600.21
0	15034	1430.21	500.21
0	15035	1430.21	400.21
0	15036	1430.21	300.21
0	15037	1430.21	200.21
0	15172	1440.21	600.21
0	15173	1440.21	500.21
0	15174	1440.21	400.21
0	15175	1440.21	300.21
0	15176	1440.21	200.21
0	15311	1450.21	600.21
0	15312	1450.21	500.21
0	15313	1450.21	400.21
0	15314	1450.21	300.21
0	15315	1450.21	200.21
0	15450	1460.21	600.21
0	15451	1460.21	500.21
0	15452	1460.21	400.21
0	15453	1460.21	300.21
0	15454	1460.21	200.21
0	15589	1470.21	600.21
0	15590	1470.21	500.21
0	15591	1470.21	400.21
0	15592	1470.21	300.21
0	15593	1470.21	200.21
0	15728	1480.21	600.21
0	15729	1480.21	500.21
0	15730	1480.21	400.21
0	15731	1480.21	300.21
0	15732	1480.21	200.21
0	15867	1490.21	600.21
0	15868	1490.21	500.21
0	15869	1490.21	400.21
0	15870	1490.21	300.21
0	15871	1490.21	200.21
0	16006	1500.21	600.21
0	16007	1500.21	500.21
0	16008	1500.21	400.21
0	16009	1500.21	300.21
0	16010	1500.21	200.21
0	16145	1510.21	600.21
0	16146	1510.21	500.21
0	16147	1510.21	400.21
0	16148	1510.21	300.21
0	16149	1510.21	200.21
0	16284	1520.21	600.21
0	16285	1520.21	500.21
0	16286	1520.21	400.21
0	16287	1520.21	300.21
0	16288	1520.21	200.21
0	16423	1530.21	600.21
0	16424	1530.21	500.21
0	16425	1530.21	400.21
0	16426	1530.21	300.21
0	16427	1530.21	200.21
0	16562	1540.21	600.21
0	16563	1540.21	500.21
0	16564	1540.21	400.21
0	16565	1540.21	300.21
0	16566	1540.21	200.21
0	16701	1550.21	600.21
0	16702	1550.21	500.21
0	16703	1550.21	400.21
0	16704	1550.21	300.21
0	16705	1550.21	200.21
0	16840	1560.21	600.21
0	16841	1560.21	500.21
0	16842	1560.21	400.21
0	16843	1560.21	300.21
0	16844	1560.21	200.21
0	16979	1570.21	600.21
0	16980	1570.21	500.21
0	16981	1570.21	400.21
0	16982	1570.21	300.21
0	16983	1570.21	200.21
0	17118	1580.21	600.21
0	17119	1580.21	500.21
0	17120	1580.21	400.21
0	17121	1580.21	300.21
0	17122	1580.21	200.21
0	17257	1590.21	600.21
0	17258	1590.21	500.21
0	17259	1590.21	400.21
0	17260	1590.21	300.21
0	17261	1590.21	200.21
0	17396	1600.21	600.21
0	17397	1600.21	500.21
0	17398	1600.21	400.21
0	17399	1600.21	300.21
0	17400	1600.21	200.21
0	17535	1610.21	600.21
0	17536	1610.21	500.21
0	17537	1610.21	400.21
0	17538	1610.21	300.21
0	17539	1610.21	200.21
0	17674	1620.21	600.21
0	17675	1620.21	500.21
0	17676	1620.21	400.21
0	17677	1620.21	300.21
0	17678	1620.21	200.21
0	17813	1630.21	600.21
0	17814	1630.21	500.21
0	17815	1630.21	400.21
0	17816	1630.21	300.21
0	17817	1630.21	200.21
0	17952	1640.21	600.21
0	17953	1640.21	500.21
0	17954	1640.21	400.21
0	17955	1640.21	300.21
0	17956	1640.21	200.21
0	18091	1650.21	600.21
0	18092	1650.21	500.21
0	18093	1650.21	400.21
0	18094	1650.21	300.21
0	18095	1650.21	200.21
0	18230	1660.21	600.21
0	18231	1660.21	500.21
0	18232	1660.21	400.21
0	18233	1660.21	300.21
0	18234	1660.21	200.21
0	18369	1670.21	600.21
0	18370	1670.21	500.21
0	18371	1670.21	400.21
0	18372	1670.21	300.21
0	18373	1670.21	200.21
0	18508	1680.21	600.21
0	18509	1680.21	500.21
0	18510	1680.21	400.21
0	18511	1680.21	300.21
0	18512	1680.21	200.21
0	18647	1690.21	600.21
0	18648	1690.21	500.21
0	18649	1690.21	400.21
0	18650	1690.21	300.21
0	18651	1690.21	200.21
0	18786	1700.21	600.21
0	18787	1700.21	500.21
0	18788	1700.21	400.21
0	18789	1700.21	300.21
0	18790	1700.21	200.21
0	18925	1710.21	600.21
0	18926	1710.21	500.21
0	18927	1710.21	400.21
0	18928	1710.21	300.21
0	18929	1710.21	200.21
0	19064	1720.21	600.21
0	19065	1720.21	500.21
0	19066	1720.21	400.21
0	19067	1720.21	300.21
0	19068	1720.21	200.21
0	19203	1730.21	600.21
0	19204	1730.21	500.21
0	19205	1730.21	400.21
0	19206	1730.21	300.21
0	19207	1730.21	200.21
0	19342	1740.21	600.21
0	19343	1740.21	500.21
0	19344	1740.21	400.21
0	19345	1740.21	300.21
0	19346	1740.21	200.21
0	19481	1750.21	600.21
0	19482	1750.21	500.21
0	19483	1750.21	400.21
0	19484	1750.21	300.21
0	19485	1750.21	200.21
0	19620	1760.21	600.21
0	19621	1760.21	500.21
0	19622	1760.21	400.21
0	19623	1760.21	300.21
0	19624	1760.21	200.21
0	19759	1770.21	600.21
0	19760	1770.21	500.21
0	19761	1770.21	400.21
0	19762	1770.21	300.21
0	19763	1770.21	200.21
0	19898	1780.21	600.21
0	19899	1780.21	500.21
0	19900	1780.21	400.21
0	19901	1780.21	300.21
0	19902	1780.21	200.21
0	20037	1790.21	600.21
0	20038	1790.21	500.21
0	20039	1790.21	400.21
0	20040	1790.21	300.21
0	20041	1790.21	200.21
0	20176	1800.21	600.21
0	20177	1800.21	500.21
0	20178	1800.21	400.21
0	20179	1800.21	300.21
0	20180	1800.21	200.21
0	20315	1810.21	600.21
0	20316	1810.21	500.21
0	20317	1810.21	400.21
0	20318	1810.21	300.21
0	20319	1810.21	200.21
0	20454	1820.21	600.21
0	20455	1820.21	500.21
0	20456	1820.21	400.21
0	20457	1820.21	300.21
0	20458	1820.21	200.21
0	20593	1830.21	600.21
0	20594	1830.21	500.21
0	20595	1830.21	400.21
0	20596	1830.21	300.21
0	20597	1830.21	200.21
0	20732	1840.21	600.21
0	20733	1840.21	500.21
0	20734	1840.21	400.21
0	20735	1840.21	300.21
0	20736	1840.21	200.21
0	20871	1850.21	600.21
0	20872	1850.21	500.21
0	20873	1850.21	400.21
0	20874	1850.21	300.21
0	20875	1850.21	200.21
0	21010	1860.21	600.21
0	21011	1860.21	500.21
0	21012	1860.21	400.21
0	21013	1860.21	300.21
0	21014	1860.21	200.21
0	21149	1870.21	600.21
0	21150	1870.21	500.21
0	21151	1870.21	400.21
0	21152	1870.21	300.21
0	21153	1870.21	200.21
0	21288	1880.21	600.21
0	21289	1880.21	500.21
0	21290	1880.21	400.21
0	21291	1880.21	300.21
0	21292	1880.21	200.21
0	21427	1890.21	600.21
0	21428	1890.21	500.21
0	21429	1890.21	400.21
0	21430	1890.21	300.21
0	21431	1890.21	200.21
0	21566	1900.21	600.21
0	21567	1900.21	500.21
0	21568	1900.21	400.21
0	21569	1900.21	300.21
0	21570	1900.21	200.21
0	21705	1910.21	600.21
0	21706	1910.21	500.21
0	21707	1910.21	400.21
0	21708	1910.21	300.21
0	21709	1910.21	200.21
0	21844	1920.21	600.21
0	21845	1920.21	500.21
0	21846	1920.21	400.21
0	21847	1920.21	300.21
0	21848	1920.21	200.21
0	21983	1930.21	600.21
0	21984	1930.21	500.21
0	21985	1930.21	400.21
0	21986	1930.21	300.21
0	21987	1930.21	200.21
0	22122	1940.21	600.21
0	22123	1940.21	500.21
0	22124	1940.21	400.21
0	22125	1940.21	300.21
0	22126	1940.21	200.21
0	22261	1950.21	600.21
0	22262	1950.21	500.21
0	22263	1950.21	400.21
0	22264	1950.21	300.21
0	22265	1950.21	200.21
0	22400	1960.21	600.21
0	22401	1960.21	500.21
0	22402	1960.21	400.21
0	22403	1960.21	300.21
0	22404	1960.21	200.21
0	22539	1970.21	600.21
0	22540	1970.21	500.21
0	22541	1970.21	400.21
0	22542	1970.21	300.21
0	22543	1970.21	200.21
0	22678	1980.21	600.21
0	22679	1980.21	500.21
0	22680	1980.21	400.21
0	22681	1980.21	300.21
0	22682	1980.21	200.21
0	22817	1990.21	600.21
0	22818	1990.21	500.21
0	22819	1990.21	400.21
0	22820	1990.21	300.21
0	22821	1990.21	200.21
0	22956	2000.21	600.21
0	22957	2000.21	500.21
0	22958	2000.21	400.21
0	22959	2000.21	300.21
0	22960	2000.21	200.21
0	23095	2010.21	600.21
0	23096	2010.21	500.21
0	23097	2010.21	400.21
0	23098	2010.21	300.21
0	23099	2010.21	200.21
0	23234	2020.21	600.21
0	23235	2020.21	500.21
0	23236	2020.21	400.21
0	23237	2020.21	300.21
0	23238	2020.21	200.21
0	23373	2030.21	600.21
0	23374	2030.21	500.21
0	23375	2030.21	400.21
0	23376	2030.21	300.21
0	23377	2030.21	200.21
0	23512	2040.21	600.21
0	23513	2040.21	500.21
0	23514	2040.21	400.21
0	23515	2040.21	300.21
0	23516	2040.21	200.21
0	23651	2050.21	600.21
0	23652	2050.21	500.21
0	23653	2050.21	400.21
0	23654	2050.21	300.21
0	23655	2050.21	200.21
0	23790	2060.21	600.21
0	23791	2060.21	500.21
0	23792	2060.21	400.21
0	23793	2060.21	300.21
0	23794	2060.21	200.21
0	23929	2070.21	600.21
0	23930	2070.21	500.21
0	23931	2070.21	400.21
0	23932	2070.21	300.21
0	23933	2070.21	200.21
0	24068	2080.21	600.21
0	24069	2080.21	500.21
0	24070	2080.21	400.21
0	24071	2080.21	300.21
0	24072	2080.21	200.21
0	24207	2090.21	600.21
0	24208	2090.21	500.21
0	24209	2090.21	400.21
0	24210	2090.21	300.21
0	24211	2090.21	200.21
0	24346	2100.21	600.21
0	24347	2100.21	500.21
0	24348	2100.21	400.21
0	24349	2100.21	300.21
0	24350	2100.21	200.21
0	24485	2110.21	600.21
0	24486	2110.21	500.21
0	24487	2110.21	400.21
0	24488	2110.21	300.21
0	24489	2110.21	200.21
0	24624	2120.21	600.21
0	24625	2120.21	500.21
0	24626	2120.21	400.21
0	24627	2120.21	300.21
0	24628	2120.21	200.21
0	24763	2130.21	600.21
0	24764	2130.21	500.21
0	24765	2130.21	400.21
0	24766	2130.21	300.21
0	24767	2130.21	200.21
0	24902	2140.21	600.21
0	24903	2140.21	500.21
0	24904	2140.21	400.21
0	24905	2140.21	300.21
0	24906	2140.21	200.21
0	25041	2150.21	600.21
0	25042	2150.21	500.21
0	25043	2150.21	400.21
0	25044	2150.21	300.21
0	25045	2150.21	200.21
0	25180	2160.21	600.21
0	25181	2160.21	500.21
0	25182	2160.21	400.21
0	25183	2160.21	300.21
0	25184	2160.21	200.21
0	25319	2170.21	600.21
0	25320	2170.21	500.21
0	25321	2170.21	400.21
0	25322	2170.21	300.21
0	25323	2170.21	200.21
0	25458	2180.21	600.21
0	25459	2180.21	500.21
0	25460	2180.21	400.21
0	25461	2180.21	300.21
0	25462	2180.21	200.21
0	25597	2190.21	600.21
0	25598	2190.21	500.21
0	25599	2190.21	400.21
0	25600	2190.21	300.21
0	25601	2190.21	200.21
0	25736	2200.21	600.21
0	25737	2200.21	500.21
0	25738	2200.21	400.21
0	25739	2200.21	300.21
0	25740	2200.21	200.21
0	25875	2210.21	600.21
0	25876	2210.21	500.21
0	25877	2210.21	400.21
0	25878	2210.21	300.21
0	25879	2210.21	200.21
0	26014	2220.21	600.21
0	26015	2220.21	500.21
0	26016	2220.21	400.21
0	26017	2220.21	300.21
0	26018	2220.21	200.21
0	26153	2230.21	600.21
0	26154	2230.21	500.21
0	26155	2230.21	400.21
0	26156	2230.21	300.21
0	26157	2230.21	200.21
0	26292	2240.21	600.21
0	26293	2240.21	500.21
0	26294	2240.21	400.21
0	26295	2240.21	300.21
0	26296	2240.21	200.21
0	26431	2250.21	600.21
0	26432	2250.21	500.21
0	26433	2250.21	400.21
0	26434	2250.21	300.21
0	26435	2250.21	200.21
0	26570	2260.21	600.21
0	26571	2260.21	500.21
0	26572	2260.21	400.21
0	26573	2260.21	300.21
0	26574	2260.21	200.21
0	26709	2270.21	600.21
0	26710	2270.21	500.21
0	26711	2270.21	400.21
0	26712	2270.21	300.21
0	26713	2270.21	200.21
0	26848	2280.21	600.21
0	26849	2280.21	500.21
0	26850	2280.21	400.21
0	26851	2280.21	300.21
0	26852	2280.21	200.21
0	26987	2290.21	600.21
0	26988	2290.21	500.21
0	26989	2290.21	400.21
0	26990	2290.21	300.21
0	26991	2290.21	200.21
0	27126	2300.21	600.21
0	27127	2300.21	500.21
0	27128	2300.21	400.21
0	27129	2300.21	300.21
0	27130	2300.21	200.21
0	27265	2310.21	600.21
0	27266	2310.21	500.21
0	27267	2310.21	400.21
0	27268	2310.21	300.21
0	27269	2310.21	200.21
0	27404	2320.21	600.21
0	27405	2320.21	500.21
0	27406	2320.21	400.21
0	27407	2320.21	300.21
0	27408	2320.21	200.21
0	27543	2330.21	600.21
0	27544	2330.21	500.21
0	27545	2330.21	400.21
0	27546	2330.21	300.21
0	27547	2330.21	200.21
0	27682	2340.21	600.21
0	27683	2340.21	500.21
0	27684	2340.21	400.21
0	27685	2340.21	300.21
0	27686	2340.21	200.21
0	27821	2350.21	600.21
0	27822	2350.21	500.21
0	27823	2350.21	400.21
0	27824	2350.21	300.21
0	27825	2350.21	200.21
0	27960	2360.21	600.21
0	27961	2360.21	500.21
0	27962	2360.21	400.21
0	27963	2360.21	300.21
0	27964	2360.21	200.21
0	28099	2370.21	600.21
0	28100	2370.21	500.21
0	28101	2370.21	400.21
0	28102	2370.21	300.21
0	28103	2370.21	200.21
0	28238	2380.21	600.21
0	28239	2380.21	500.21
0	28240	2380.21	400.21
0	28241	2380.21	300.21
0	28242	2380.21	200.21
0	28377	2390.21	600.21
0	28378	2390.21	500.21
0	28379	2390.21	400.21
0	28380	2390.21	300.21
0	28381	2390.21	200.21
0	28516	2400.21	600.21
0	28517	2400.21	500.21
0	28518	2400.21	400.21
0	28519	2400.21	300.21
0	28520	2400.21	200.21
0	28655	2410.21	600.21
0	28656	2410.21	500.21
0	28657	2410.21	400.21
0	28658	2410.21	300.21
0	28659	2410.21	200.21
0	28794	2420.21	600.21
0	28795	2420.21	500.21
0	28796	2420.21	400.21
0	28797	2420.21	300.21
0	28798	2420.21	200.21
0	28933	2430.21	600.21
0	28934	2430.21	500.21
0	28935	2430.21	400.21
0	28936	2430.21	300.21
0	28937	2430.21	200.21
0	29072	2440.21	600.21
0	29073	2440.21	500.21
0	29074	2440.21	400.21
0	29075	2440.21	300.21
0	29076	2440.21	200.21
0	29211	2450.21	600.21
0	29212	2450.21	500.21
0	29213	2450.21	400.21
0	29214	2450.21	300.21
0	29215	2450.21	200.21
0	29350	2460.21	600.21
0	29351	2460.21	500.21
0	29352	2460.21	400.21
0	29353	2460.21	300.21
0	29354	2460.21	200.21
0	29489	2470.21	600.21
0	29490	2470.21	500.21
0	29491	2470.21	400.21
0	29492	2470.21	300.21
0	29493	2470.21	200.21
0	29628	2480.21	600.21
0	29629	2480.21	500.21
0	29630	2480.21	400.21
0	29631	2480.21	300.21
0	29632	2480.21	200.21
0	29767	2490.21	600.21
0	29768	2490.21	500.21
0	29769	2490.21	400.21
0	29770	2490.21	300.21
0	29771	2490.21	200.21
0	29906	2500.21	600.21
0	29907	2500.21	500.21
0	29908	2500.21	400.21
0	29909	2500.21	300.21
0	29910	2500.21	200.21
0	30045	2510.21	600.21
0	30046	2510.21	500.21
0	30047	2510.21	400.21
0	30048	2510.21	300.21
0	30049	2510.21	200.21
0	30184	2520.21	600.21
0	30185	2520.21	500.21
0	30186	2520.21	400.21
0	30187	2520.21	300.21
0	30188	2520.21	200.21
0	30323	2530.21	600.21
0	30324	2530.21	500.21
0	30325	2530.21	400.21
0	30326	2530.21	300.21
0	30327	2530.21	200.21
0	30462	2540.21	600.21
0	30463	2540.21	500.21
0	30464	2540.21	400.21
0	30465	2540.21	300.21
0	30466	2540.21	200.21
0	30601	2550.21	600.21
0	30602	2550.21	500.21
0	30603	2550.21	400.21
0	30604	2550.21	300.21
0	30605	2550.21	200.21
0	30740	2560.21	600.21
0	30741	2560.21	500.21
0	30742	2560.21	400.21
0	30743	2560.21	300.21
0	30744	2560.21	200.21
0	30879	2570.21	600.21
0	30880	2570.21	500.21
0	30881	2570.21	400.21
0	30882	2570.21	300.21
0	30883	2570.21	200.21
0	31018	2580.21	600.21
0	31019	2580.21	500.21
0	31020	2580.21	400.21
0	31021	2580.21	300.21
0	31022	2580.21	200.21
0	31157	2590.21	600.21
0	31158	2590.21	500.21
0	31159	2590.21	400.21
0	31160	2590.21	300.21
0	31161	2590.21	200.21
0	31296	2600.21	600.21
0	31297	2600.21	500.21
0	31298	2600.21	400.21
0	31299	2600.21	300.21
0	31300	2600.21	200.21
0	31435	2610.21	600.21
0	31436	2610.21	500.21
0	31437	2610.21	400.21
0	31438	2610.21	300.21
0	31439	2610.21	200.21
0	31574	2620.21	600.21
0	31575	2620.21	500.21
0	31576	2620.21	400.21
0	31577	2620.21	300.21
0	31578	2620.21	200.21
0	31713	2630.21	600.21
0	31714	2630.21	500.21
0	31715	2630.21	400.21
0	31716	2630.21	300.21
0	31717	2630.21	200.21
0	31852	2640.21	600.21
0	31853	2640.21	500.21
0	31854	2640.21	400.21
0	31855	2640.21	300.21
0	31856	2640.21	200.21
0	31991	2650.21	600.21
0	31992	2650.21	500.21
0	31993	2650.21	400.21
0	31994	2650.21	300.21
0	31995	2650.21	200.21
0	32130	2660.21	600.21
0	32131	2660.21	500.21
0	32132	2660.21	400.21
0	32133	2660.21	300.21
0	32134	2660.21	200.21
0	32269	2670.21	600.21
0	32270	2670.21	500.21
0	32271	2670.21	400.21
0	32272	2670.21	300.21
0	32273	2670.21	200.21
0	32408	2680.21	600.21
0	32409	2680.21	500.21
0	32410	2680.21	400.21
0	32411	2680.21	300.21
0	32412	2680.21	200.21
0	32547	2690.21	600.21
0	32548	2690.21	500.21
0	32549	2690.21	400.21
0	32550	2690.21	300.21
0	32551	2690.21	200.21
0	32686	2700.21	600.21
0	32687	2700.21	500.21
0	32688	2700.21	400.21
0	32689	2700.21	300.21
0	32690	2700.21	200.21
0	32825	2710.21	600.21
0	32826	2710.21	500.21
0	32827	2710.21	400.21
0	32828	2710.21	300.21
0	32829	2710.21	200.21
0	32964	2720.21	600.21
0	32965	2720.21	500.21
0	32966	2720.21	400.21
0	32967	2720.21	300.21
0	32968	2720.21	200.21
0	33103	2730.21	600.21
0	33104	2730.21	500.21
0	33105	2730.21	400.21
0	33106	2730.21	300.21
0	33107	2730.21	200.21
0	33242	2740.21	600.21
0	33243	2740.21	500.21
0	33244	2740.21	400.21
0	33245	2740.21	300.21
0	33246	2740.21	200.21
0	33381	2750.21	600.21
0	33382	2750.21	500.21
0	33383	2750.21	400.21
0	33384	2750.21	300.21
0	33385	2750.21	200.21
0	33520	2760.21	600.21
0	33521	2760.21	500.21
0	33522	2760.21	400.21
0	33523	2760.21	300.21
0	33524	2760.21	200.21
0	33659	2770.21	600.21
0	33660	2770.21	500.21
0	33661	2770.21	400.21
0	33662	2770.21	300.21
0	33663	2770.21	200.21
0	33798	2780.21	600.21
0	33799	2780.21	500.21
0	33800	2780.21	400.21
0	33801	2780.21	300.21
0	33802	2780.21	200.21
0	33937	2790.21	600.21
0	33938	2790.21	500.21
0	33939	2790.21	400.21
0	33940	2790.21	300.21
0	33941	2790.21	200.21
0	34076	2800.21	600.21
0	34077	2800.21	500.21
0	34078	2800.21	400.21
0	34079	2800.21	300.21
0	34080	2800.21	200.21
0	34215	2810.21	600.21
0	34216	2810.21	500.21
0	34217	2810.21	400.21
0	34218	2810.21	300.21
0	34219	2810.21	200.21
0	34354	2820.21	600.21
0	34355	2820.21	500.21
0	34356	2820.21	400.21
0	34357	2820.21	300.21
0	34358	2820.21	200.21
0	34493	2830.21	600.21
0	34494	2830.21	500.21
0	34495	2830.21	400.21
0	34496	2830.21	300.21
0	34497	2830.21	200.21
0	34632	2840.21	600.21
0	34633	2840.21	500.21
0	34634	2840.21	400.21
0	34635	2840.21	300.21
0	34636	2840.21	200.21
0	34771	2850.21	600.21
0	34772	2850.21	500.21
0	34773	2850.21	400.21
0	34774	2850.21	300.21
0	34775	2850.21	200.21
0	34910	2860.21	600.21
0	34911	2860.21	500.21
0	34912	2860.21	400.21
0	34913	2860.21	300.21
0	34914	2860.21	200.21
0	35049	2870.21	600.21
0	35050	2870.21	500.21
0	35051	2870.21	400.21
0	35052	2870.21	300.21
0	35053	2870.21	200.21
0	35188	2880.21	600.21
0	35189	2880.21	500.21
0	35190	2880.21	400.21
0	35191	2880.21	300.21
0	35192	2880.21	200.21
0	35327	2890.21	600.21
0	35328	2890.21	500.21
0	35329	2890.21	400.21
0	35330	2890.21	300.21
0	35331	2890.21	200.21
0	35466	2900.21	600.21
0	35467	2900.21	500.21
0	35468	2900.21	400.21
0	35469	2900.21	300.21
0	35470	2900.21	200.21
0	35605	2910.21	600.21
0	35606	2910.21	500.21
0	35607	2910.21	400.21
0	35608	2910.21	300.21
0	35609	2910.21	200.21
0	35744	2920.21	600.21
0	35745	2920.21	500.21
0	35746	2920.21	400.21
0	35747	2920.21	300.21
0	35748	2920.21	200.21
0	35883	2930.21	600.21
0	35884	2930.21	500.21
0	35885	2930.21	400.21
0	35886	2930.21	300.21
0	35887	2930.21	200.21
0	36022	2940.21	600.21
0	36023	2940.21	500.21
0	36024	2940.21	400.21
0	36025	2940.21	300.21
0	36026	2940.21	200.21
0	36161	2950.21	600.21
0	36162	2950.21	500.21
0	36163	2950.21	400.21
0	36164	2950.21	300.21
0	36165	2950.21	200.21
0	36300	2960.21	600.21
0	36301	2960.21	500.21
0	36302	2960.21	400.21
0	36303	2960.21	300.21
0	36304	2960.21	200.21
0	36439	2970.21	600.21
0	36440	2970.21	500.21
0	36441	2970.21	400.21
0	36442	2970.21	300.21
0	36443	2970.21	200.21
0	36578	2980.21	600.21
0	36579	2980.21	500.21
0	36580	2980.21	400.21
0	36581	2980.21	300.21
0	36582	2980.21	200.21
0	36717	2990.21	600.21
0	36718	2990.21	500.21
0	36719	2990.21	400.21
0	36720	2990.21	300.21
0	36721	2990.21	200.21
0	36856	3000.21	600.21
0	36857	3000.21	500.21
0	36858	3000.21	400.21
0	36859	3000.21	300.21
0	36860	3000.21	200.21
0	36995	3010.21	600.21
0	36996	3010.21	500.21
0	36997	3010.21	400.21
0	36998	3010.21	300.21
0	36999	3010.21	200.21
0	37134	3020.21	600.21
0	37135	3020.21	500.21
0	37136	3020.21	400.21
0	37137	3020.21	300.21
0	37138	3020.21	200.21
0	37273	3030.21	600.21
0	37274	3030.21	500.21
0	37275	3030.21	400.21
0	37276	3030.21	300.21
0	37277	3030.21	200.21
0	37412	3040.21	600.21
0	37413	3040.21	500.21
0	37414	3040.21	400.21
0	37415	3040.21	300.21
0	37416	3040.21	200.21
0	37551	3050.21	600.21
0	37552	3050.21	500.21
0	37553	3050.21	400.21
0	37554	3050.21	300.21
0	37555	3050.21	200.21
0	37690	3060.21	600.21
0	37691	3060.21	500.21
0	37692	3060.21	400.21
0	37693	3060.21	300.21
0	37694	3060.21	200.21
0	37829	3070.21	600.21
0	37830	3070.21	500.21
0	37831	3070.21	400.21
0	37832	3070.21	300.21
0	37833	3070.21	200.21
0	37968	3080.21	600.21
0	37969	3080.21	500.21
0	37970	3080.21	400.21
0	37971	3080.21	300.21
0	37972	3080.21	200.21
0	38107	3090.21	600.21
0	38108	3090.21	500.21
0	38109	3090.21	400.21
0	38110	3090.21	300.21
0	38111	3090.21	200.21
0	38246	3100.21	600.21
0	38247	3100.21	500.21
0	38248	3100.21	400.21
0	38249	3100.21	300.21
0	38250	3100.21	200.21
0	38385	3110.21	600.21
0	38386	3110.21	500.21
0	38387	3110.21	400.21
0	38388	3110.21	300.21
0	38389	3110.21	200.21
0	38524	3120.21	600.21
0	38525	3120.21	500.21
0	38526	3120.21	400.21
0	38527	3120.21	300.21
0	38528	3120.21	200.21
0	38663	3130.21	600.21
0	38664	3130.21	500.21
0	38665	3130.21	400.21
0	38666	3130.21	300.21
0	38667	3130.21	200.21
0	38802	3140.21	600.21
0	38803	3140.21	500.21
0	38804	3140.21	400.21
0	38805	3140.21	300.21
0	38806	3140.21	200.21
0	38941	3150.21	600.21
0	38942	3150.21	500.21
0	38943	3150.21	400.21
0	38944	3150.21	300.21
0	38945	3150.21	200.21
0	39080	3160.21	600.21
0	39081	3160.21	500.21
0	39082	3160.21	400.21
0	39083	3160.21	300.21
0	39084	3160.21	200.21
0	39219	3170.21	600.21
0	39220	3170.21	500.21
0	39221	3170.21	400.21
0	39222	3170.21	300.21
0	39223	3170.21	200.21
0	39358	3180.21	600.21
0	39359	3180.21	500.21
0	39360	3180.21	400.21
0	39361	3180.21	300.21
0	39362	3180.21	200.21
0	39497	3190.21	600.21
0	39498	3190.21	500.21
0	39499	3190.21	400.21
0	39500	3190.21	300.21
0	39501	3190.21	200.21
0	39636	3200.21	600.21
0	39637	3200.21	500.21
0	39638	3200.21	400.21
0	39639	3200.21	300.21
0	39640	3200.21	200.21
0	39775	3210.21	600.21
0	39776	3210.21	500.21
0	39777	3210.21	400.21
0	39778	3210.21	300.21
0	39779	3210.21	200.21
0	39915	3220.21	600.21
0	39916	3220.21	500.21
0	39917	3220.21	400.21
0	39918	3220.21	300.21
0	39919	3220.21	200.21
0	40053	3230.21	600.21
0	40054	3230.21	500.21
0	40055	3230.21	400.21
0	40056	3230.21	300.21
0	40057	3230.21	200.21
0	40191	3240.21	600.21
0	40192	3240.21	500.21
0	40193	3240.21	400.21
0	40194	3240.21	300.21
0	40195	3240.21	200.21
0	40329	3250.21	600.21
0	40330	3250.21	500.21
0	40331	3250.21	400.21
0	40332	3250.21	300.21
0	40333	3250.21	200.21
0	40467	3260.21	600.21
0	40468	3260.21	500.21
0	40469	3260.21	400.21
0	40470	3260.21	300.21
0	40471	3260.21	200.21
0	40605	3270.21	600.21
0	40606	3270.21	500.21
0	40607	3270.21	400.21
0	40608	3270.21	300.21
0	40609	3270.21	200.21
0	40743	3280.21	600.21
0	40744	3280.21	500.21
0	40745	3280.21	400.21
0	40746	3280.21	300.21
0	40747	3280.21	200.21
0	40881	3290.21	600.21
0	40882	3290.21	500.21
0	40883	3290.21	400.21
0	40884	3290.21	300.21
0	40885	3290.21	200.21
0	41019	3300.21	600.21
0	41020	3300.21	500.21
0	41021	3300.21	400.21
0	41022	3300.21	300.21
0	41023	3300.21	200.21
0	41157	3310.21	600.21
0	41158	3310.21	500.21
0	41159	3310.21	400.21
0	41160	3310.21	300.21
0	41161	3310.21	200.21
0	41295	3320.21	600.21
0	41296	3320.21	500.21
0	41297	3320.21	400.21
0	41298	3320.21	300.21
0	41299	3320.21	200.21
0	41433	3330.21	600.21
0	41434	3330.21	500.21
0	41435	3330.21	400.21
0	41436	3330.21	300.21
0	41437	3330.21	200.21
0	41571	3340.21	600.21
0	41572	3340.21	500.21
0	41573	3340.21	400.21
0	41574	3340.21	300.21
0	41575	3340.21	200.21
0	41709	3350.21	600.21
0	41710	3350.21	500.21
0	41711	3350.21	400.21
0	41712	3350.21	300.21
0	41713	3350.21	200.21
0	41847	3360.21	600.21
0	41848	3360.21	500.21
0	41849	3360.21	400.21
0	41850	3360.21	300.21
0	41851	3360.21	200.21
0	41985	3370.21	600.21
0	41986	3370.21	500.21
0	41987	3370.21	400.21
0	41988	3370.21	300.21
0	41989	3370.21	200.21
0	42123	3380.21	600.21
0	42124	3380.21	500.21
0	42125	3380.21	400.21
0	42126	3380.21	300.21
0	42127	3380.21	200.21
0	42261	3390.21	600.21
0	42262	3390.21	500.21
0	42263	3390.21	400.21
0	42264	3390.21	300.21
0	42265	3390.21	200.21
0	42399	3400.21	600.21
0	42400	3400.21	500.21
0	42401	3400.21	400.21
0	42402	3400.21	300.21
0	42403	3400.21	200.21
0	42537	3410.21	600.21
0	42538	3410.21	500.21
0	42539	3410.21	400.21
0	42540	3410.21	300.21
0	42541	3410.21	200.21
0	42676	3420.21	600.21
0	42677	3420.21	500.21
0	42678	3420.21	400.21
0	42679	3420.21	300.21
0	42680	3420.21	200.21
0	42814	3430.21	600.21
0	42815	3430.21	500.21
0	42816	3430.21	400.21
0	42817	3430.21	300.21
0	42818	3430.21	200.21
0	42952	3440.21	600.21
0	42953	3440.21	500.21
0	42954	3440.21	400.21
0	42955	3440.21	300.21
0	42956	3440.21	200.21
0	43090	3450.21	600.21
0	43091	3450.21	500.21
0	43092	3450.21	400.21
0	43093	3450.21	300.21
0	43094	3450.21	200.21
0	43291	3460.35	600.35
0	43292	3460.35	500.35
0	43293	3460.35	400.35
0	43294	3460.35	300.35
0	43295	3460.35	200.35
0	43531	3470.35	600.35
0	43532	3470.35	500.35
0	43533	3470.35	400.35
0	43534	3470.35	300.35
0	43535	3470.35	200.35
0	43771	3480.35	600.35
0	43772	3480.35	500.35
0	43773	3480.35	400.35
0	43774	3480.35	300.35
0	43775	3480.35	200.35
0	44011	3490.35	600.35
0	44012	3490.35	500.35
0	44013	3490.35	400.35
0	44014	3490.35	300.35
0	44015	3490.35	200.35
0	44251	3500.35	600.35
0	44252	3500.35	500.35
0	44253	3500.35	400.35
0	44254	3500.35	300.35
0	44255	3500.35	200.35
0	44491	3510.35	600.35
0	44492	3510.35	500.35
0	44493	3510.35	400.35
0	44494	3510.35	300.35
0	44495	3510.35	200.35
0	44731	3520.35	600.35
0	44732	3520.35	500.35
0	44733	3520.35	400.35
0	44734	3520.35	300.35
0	44735	3520.35	200.35
0	44971	3530.35	600.35
0	44972	3530.35	500.35
0	44973	3530.35	400.35
0	44974	3530.35	300.35
0	44975	3530.35	200.35
0	45214	3540.35	600.35
0	45215	3540.35	500.35
0	45216	3540.35	400.35
0	45217	3540.35	300.35
0	45218	3540.35	200.35
0	45455	3550.35	600.35
0	45456	3550.35	500.35
0	45457	3550.35	400.35
0	45458	3550.35	300.35
0	45459	3550.35	200.35
0	45701	3560.35	600.35
0	45702	3560.35	500.35
0	45703	3560.35	400.35
0	45704	3560.35	300.35
0	45705	3560.35	200.35
0	45947	3570.35	600.35
0	45948	3570.35	500.35
0	45949	3570.35	400.35
0	45950	3570.35	300.35
0	45951	3570.35	200.35
0	46193	3580.35	600.35
0	46194	3580.35	500.35
0	46195	3580.35	400.35
0	46196	3580.35	300.35
0	46197	3580.35	200.35
0	46439	3590.35	600.35
0	46440	3590.35	500.35
0	46441	3590.35	400.35
0	46442	3590.35	300.35
0	46443	3590.35	200.35
0	46685	3600.35	600.35
0	46686	3600.35	500.35
0	46687	3600.35	400.35
0	46688	3600.35	300.35
0	46689	3600.35	200.35
0	46931	3610.35	600.35
0	46932	3610.35	500.35
0	46933	3610.35	400.35
0	46934	3610.35	300.35
0	46935	3610.35	200.35
0	47103	3620.16	600.16
0	47104	3620.16	500.16
0	47105	3620.16	400.16
0	47106	3620.16	300.16
0	47107	3620.16	200.16
0	47232	3620.35	600.35
0	47233	3620.35	500.35
0	47234	3620.35	400.35
0	47235	3620.35	300.35
0	47368	3630.16	600.16
0	47369	3630.16	500.16
0	47370	3630.16	400.16
0	47371	3630.16	300.16
0	47372	3630.16	200.16
0	47497	3630.35	600.35
0	47498	3630.35	500.35
0	47499	3630.35	400.35
0	47500	3630.35	300.35
0	47633	3640.16	600.16
0	47634	3640.16	500.16
0	47635	3640.16	400.16
0	47636	3640.16	300.16
0	47637	3640.16	200.16
0	47762	3640.35	600.35
0	47763	3640.35	500.35
0	47764	3640.35	400.35
0	47765	3640.35	300.35
0	47897	3650.16	600.16
0	47898	3650.16	500.16
0	47899	3650.16	400.16
0	47900	3650.16	300.16
0	47901	3650.16	200.16
0	48026	3650.35	600.35
0	48027	3650.35	500.35
0	48028	3650.35	400.35
0	48029	3650.35	300.35
0	48161	3660.16	600.16
0	48162	3660.16	500.16
0	48163	3660.16	400.16
0	48164	3660.16	300.16
0	48165	3660.16	200.16
0	48290	3660.35	600.35
0	48291	3660.35	500.35
0	48292	3660.35	400.35
0	48293	3660.35	300.35
0	48425	3670.16	600.16
0	48426	3670.16	500.16
0	48427	3670.16	400.16
0	48428	3670.16	300.16
0	48429	3670.16	200.16
0	48554	3670.35	600.35
0	48555	3670.35	500.35
0	48556	3670.35	400.35
0	48557	3670.35	300.35
0	48689	3680.16	600.16
0	48690	3680.16	500.16
0	48691	3680.16	400.16
0	48692	3680.16	300.16
0	48693	3680.16	200.16
0	48818	3680.35	600.35
0	48819	3680.35	500.35
0	48820	3680.35	400.35
0	48821	3680.35	300.35
0	48953	3690.16	600.16
0	48954	3690.16	500.16
0	48955	3690.16	400.16
0	48956	3690.16	300.16
0	48957	3690.16	200.16
0	49082	3690.35	600.35
0	49083	3690.35	500.35
0	49084	3690.35	400.35
0	49085	3690.35	300.35
0	49217	3700.16	600.16
0	49218	3700.16	500.16
0	49219	3700.16	400.16
0	49220	3700.16	300.16
0	49221	3700.16	200.16
0	49346	3700.35	600.35
0	49347	3700.35	500.35
0	49348	3700.35	400.35
0	49349	3700.35	300.35
0	49481	3710.16	600.16
0	49482	3710.16	500.16
0	49483	3710.16	400.16
0	49484	3710.16	300.16
0	49485	3710.16	200.16
0	49610	3710.35	600.35
0	49611	3710.35	500.35
0	49612	3710.35	400.35
0	49613	3710.35	300.35
0	49750	3720.16	600.16
0	49751	3720.16	500.16
0	49752	3720.16	400.16
0	49753	3720.16	300.16
0	49754	3720.16	200.16
0	49868	3720.35	600.35
0	49869	3720.35	500.35
0	49870	3720.35	400.35
0	49997	3730.16	600.16
0	49998	3730.16	500.16
0	49999	3730.16	400.16
0	50000	3730.16	300.16
0	50001	3730.16	200.16
0	50115	3730.35	600.35
0	50116	3730.35	500.35
0	50117	3730.35	400.35
0	50244	3740.16	600.16
0	50245	3740.16	500.16
0	50246	3740.16	400.16
0	50247	3740.16	300.16
0	50248	3740.16	200.16
0	50362	3740.35	600.35
0	50363	3740.35	500.35
0	50364	3740.35	400.35
0	50491	3750.16	600.16
0	50492	3750.16	500.16
0	50493	3750.16	400.16
0	50494	3750.16	300.16
0	50495	3750.16	200.16
0	50609	3750.35	600.35
0	50610	3750.35	500.35
0	50611	3750.35	400.35
0	50738	3760.16	600.16
0	50739	3760.16	500.16
0	50740	3760.16	400.16
0	50741	3760.16	300.16
0	50742	3760.16	200.16
0	50856	3760.35	600.35
0	50857	3760.35	500.35
0	50858	3760.35	400.35
0	50985	3770.16	600.16
0	50986	3770.16	500.16
0	50987	3770.16	400.16
0	50988	3770.16	300.16
0	50989	3770.16	200.16
0	51103	3770.35	600.35
0	51104	3770.35	500.35
0	51105	3770.35	400.35
0	51232	3780.16	600.16
0	51233	3780.16	500.16
0	51234	3780.16	400.16
0	51235	3780.16	300.16
0	51236	3780.16	200.16
0	51350	3780.35	600.35
0	51351	3780.35	500.35
0	51352	3780.35	400.35
0	51479	3790.16	600.16
0	51480	3790.16	500.16
0	51481	3790.16	400.16
0	51482	3790.16	300.16
0	51483	3790.16	200.16
0	51597	3790.35	600.35
0	51598	3790.35	500.35
0	51599	3790.35	400.35
0	51726	3800.16	600.16
0	51727	3800.16	500.16
0	51728	3800.16	400.16
0	51729	3800.16	300.16
0	51730	3800.16	200.16
0	51844	3800.35	600.35
0	51845	3800.35	500.35
0	51846	3800.35	400.35
0	51973	3810.16	600.16
0	51974	3810.16	500.16
0	51975	3810.16	400.16
0	51976	3810.16	300.16
0	51977	3810.16	200.16
0	52091	3810.35	600.35
0	52092	3810.35	500.35
0	52093	3810.35	400.35
0	52220	3820.16	600.16
0	52221	3820.16	500.16
0	52222	3820.16	400.16
0	52223	3820.16	300.16
0	52224	3820.16	200.16
0	52332	3820.35	600.35
0	52333	3820.35	500.35
0	52450	3830.16	600.16
0	52451	3830.16	500.16
0	52452	3830.16	400.16
0	52453	3830.16	300.16
0	52454	3830.16	200.16
0	52562	3830.35	600.35
0	52563	3830.35	500.35
0	52682	3840.16	600.16
0	52683	3840.16	500.16
0	52684	3840.16	400.16
0	52685	3840.16	300.16
0	52686	3840.16	200.16
0	52796	3840.35	600.35
0	52797	3840.35	500.35
0	52915	3850.16	600.16
0	52916	3850.16	500.16
0	52917	3850.16	400.16
0	52918	3850.16	300.16
0	52919	3850.16	200.16
0	53029	3850.35	600.35
0	53030	3850.35	500.35
0	53148	3860.16	600.16
0	53149	3860.16	500.16
0	53150	3860.16	400.16
0	53151	3860.16	300.16
0	53152	3860.16	200.16
0	53262	3860.35	600.35
0	53263	3860.35	500.35
0	53381	3870.16	600.16
0	53382	3870.16	500.16
0	53383	3870.16	400.16
0	53384	3870.16	300.16
0	53385	3870.16	200.16
0	53495	3870.35	600.35
0	53496	3870.35	500.35
0	53613	3880.16	600.16
0	53614	3880.16	500.16
0	53615	3880.16	400.16
0	53616	3880.16	300.16
0	53617	3880.16	200.16
0	53727	3880.35	600.35
0	53728	3880.35	500.35
0	53845	3890.16	600.16
0	53846	3890.16	500.16
0	53847	3890.16	400.16
0	53848	3890.16	300.16
0	53849	3890.16	200.16
0	53959	3890.35	600.35
0	53960	3890.35	500.35
0	54077	3900.16	600.16
0	54078	3900.16	500.16
0	54079	3900.16	400.16
0	54080	3900.16	300.16
0	54081	3900.16	200.16
0	54191	3900.35	600.35
0	54192	3900.35	500.35
0	54309	3910.16	600.16
0	54310	3910.16	500.16
0	54311	3910.16	400.16
0	54312	3910.16	300.16
0	54313	3910.16	200.16
0	54423	3910.35	600.35
0	54424	3910.35	500.35
0	54541	3920.16	600.16
0	54542	3920.16	500.16
0	54543	3920.16	400.16
0	54544	3920.16	300.16
0	54545	3920.16	200.16
0	54649	3920.35	600.35
0	54756	3930.16	600.16
0	54757	3930.16	500.16
0	54758	3930.16	400.16
0	54759	3930.16	300.16
0	54760	3930.16	200.16
0	54864	3930.35	600.35
0	54971	3940.16	600.16
0	54972	3940.16	500.16
0	54973	3940.16	400.16
0	54974	3940.16	300.16
0	54975	3940.16	200.16
0	55079	3940.35	600.35
0	55186	3950.16	600.16
0	55187	3950.16	500.16
0	55188	3950.16	400.16
0	55189	3950.16	300.16
0	55190	3950.16	200.16
0	55294	3950.35	600.35
0	55401	3960.16	600.16
0	55402	3960.16	500.16
0	55403	3960.16	400.16
0	55404	3960.16	300.16
0	55405	3960.16	200.16
0	55509	3960.35	600.35
0	55616	3970.16	600.16
0	55617	3970.16	500.16
0	55618	3970.16	400.16
0	55619	3970.16	300.16
0	55620	3970.16	200.16
0	55724	3970.35	600.35
0	55831	3980.16	600.16
0	55832	3980.16	500.16
0	55833	3980.16	400.16
0	55834	3980.16	300.16
0	55835	3980.16	200.16
0	55939	3980.35	600.35
0	56046	3990.16	600.16
0	56047	3990.16	500.16
0	56048	3990.16	400.16
0	56049	3990.16	300.16
0	56050	3990.16	200.16
0	56154	3990.35	600.35
0	56261	4000.16	600.16
0	56262	4000.16	500.16
0	56263	4000.16	400.16
0	56264	4000.16	300.16
0	56265	4000.16	200.16
0	56369	4000.35	600.35
0	56476	4010.16	600.16
0	56477	4010.16	500.16
0	56478	4010.16	400.16
0	56479	4010.16	300.16
0	56480	4010.16	200.16
0	56584	4010.35	600.35
0	56691	4020.16	600.16
0	56692	4020.16	500.16
0	56693	4020.16	400.16
0	56694	4020.16	300.16
0	56695	4020.16	200.16
0	56883	4030.16	600.16
0	56884	4030.16	500.16
0	56885	4030.16	400.16
0	56886	4030.16	300.16
0	56887	4030.16	200.16
0	57075	4040.16	600.16
0	57076	4040.16	500.16
0	57077	4040.16	400.16
0	57078	4040.16	300.16
0	57079	4040.16	200.16
0	57267	4050.16	600.16
0	57268	4050.16	500.16
0	57269	4050.16	400.16
0	57270	4050.16	300.16
0	57271	4050.16	200.16
0	57459	4060.16	600.16
0	57460	4060.16	500.16
0	57461	4060.16	400.16
0	57462	4060.16	300.16
0	57463	4060.16	200.16
0	57652	4070.16	600.16
0	57653	4070.16	500.16
0	57654	4070.16	400.16
0	57655	4070.16	300.16
0	57656	4070.16	200.16
0	57829	4080.16	600.16
0	57830	4080.16	500.16
0	57831	4080.16	400.16
0	57832	4080.16	300.16
0	57833	4080.16	200.16
0	58006	4090.16	600.16
0	58007	4090.16	500.16
0	58008	4090.16	400.16
0	58009	4090.16	300.16
0	58010	4090.16	200.16
0	58184	4100.16	600.16
0	58185	4100.16	500.16
0	58186	4100.16	400.16
0	58187	4100.16	300.16
0	58188	4100.16	200.16
0	58334	4110.16	600.16
0	58335	4110.16	500.16
0	58336	4110.16	400.16
0	58337	4110.16	300.16
0	58338	4110.16	200.16
0	58484	4120.16	600.16
0	58485	4120.16	500.16
0	58486	4120.16	400.16
0	58487	4120.16	300.16
0	58488	4120.16	200.16
0	58633	4130.16	600.16
0	58634	4130.16	500.16
0	58635	4130.16	400.16
0	58636	4130.16	300.16
0	58637	4130.16	200.16
0	58785	4140.16	600.16
0	58786	4140.16	500.16
0	58787	4140.16	400.16
0	58788	4140.16	300.16
0	58789	4140.16	200.16
0	58938	4150.16	600.16
0	58939	4150.16	500.16
0	58940	4150.16	400.16
0	58941	4150.16	300.16
0	58942	4150.16	200.16
0	59089	4160.16	600.16
0	59090	4160.16	500.16
0	59091	4160.16	400.16
0	59092	4160.16	300.16
0	59093	4160.16	200.16
0	59241	4170.16	600.16
0	59242	4170.16	500.16
0	59243	4170.16	400.16
0	59244	4170.16	300.16
0	59245	4170.16	200.16
0	59364	4180.16	600.16
0	59365	4180.16	500.16
0	59366	4180.16	400.16
0	59367	4180.16	300.16
0	59368	4180.16	200.16
0	59487	4190.16	600.16
0	59488	4190.16	500.16
0	59489	4190.16	400.16
0	59490	4190.16	300.16
0	59491	4190.16	200.16
0	59787	4200.16	600.16
0	59788	4200.16	500.16
0	59789	4200.16	400.16
0	59790	4200.16	300.16
0	59791	4200.16	200.16
0	59911	4210.16	600.16
0	59912	4210.16	500.16
0	59913	4210.16	400.16
0	59914	4210.16	300.16
0	59915	4210.16	200.16
0	60038	4220.16	600.16
0	60039	4220.16	500.16
0	60040	4220.16	400.16
0	60041	4220.16	300.16
0	60042	4220.16	200.16
0	60163	4230.16	600.16
0	60164	4230.16	500.16
0	60165	4230.16	400.16
0	60166	4230.16	300.16
0	60167	4230.16	200.16
0	60288	4240.16	600.16
0	60289	4240.16	500.16
0	60290	4240.16	400.16
0	60291	4240.16	300.16
0	60292	4240.16	200.16
0	60413	4250.16	600.16
0	60414	4250.16	500.16
0	60415	4250.16	400.16
0	60416	4250.16	300.16
0	60417	4250.16	200.16
0	60538	4260.16	600.16
0	60539	4260.16	500.16
0	60540	4260.16	400.16
0	60541	4260.16	300.16
0	60542	4260.16	200.16
0	60688	4270.16	700.16
0	60689	4270.16	600.16
0	60690	4270.16	500.16
0	60691	4270.16	400.16
0	60692	4270.16	300.16
0	60693	4270.16	600.16
0	60694	4270.16	500.16
0	60695	4270.16	400.16
0	60696	4270.16	300.16
0	60697	4270.16	200.16
0	60819	4280.16	700.16
0	60820	4280.16	600.16
0	60821	4280.16	500.16
0	60822	4280.16	400.16
0	60823	4280.16	300.16
0	60824	4280.16	600.16
0	60825	4280.16	500.16
0	60826	4280.16	400.16
0	60827	4280.16	300.16
0	60828	4280.16	200.16
0	60950	4290.16	700.16
0	60951	4290.16	600.16
0	60952	4290.16	500.16
0	60953	4290.16	400.16
0	60954	4290.16	300.16
0	60955	4290.16	600.16
0	60956	4290.16	500.16
0	60957	4290.16	400.16
0	60958	4290.16	300.16
0	60959	4290.16	200.16
0	61081	4300.16	700.16
0	61082	4300.16	600.16
0	61083	4300.16	500.16
0	61084	4300.16	400.16
0	61085	4300.16	300.16
0	61086	4300.16	600.16
0	61087	4300.16	500.16
0	61088	4300.16	400.16
0	61089	4300.16	300.16
0	61090	4300.16	200.16
0	61294	4310.2	700.2
0	61295	4310.2	600.2
0	61296	4310.2	500.2
0	61297	4310.2	400.2
0	61298	4310.2	300.2
0	61299	4310.2	600.2
0	61300	4310.2	500.2
0	61301	4310.2	400.2
0	61302	4310.2	300.2
0	61303	4310.2	200.2
0	61829	4320.2	700.2
0	61830	4320.2	600.2
0	61831	4320.2	500.2
0	61832	4320.2	400.2
0	61833	4320.2	300.2
0	61834	4320.2	600.2
0	61835	4320.2	500.2
0	61836	4320.2	400.2
0	61837	4320.2	300.2
0	61838	4320.2	200.2
0	62062	4330.2	700.2
0	62063	4330.2	600.2
0	62064	4330.2	500.2
0	62065	4330.2	400.2
0	62066	4330.2	300.2
0	62067	4330.2	600.2
0	62068	4330.2	500.2
0	62069	4330.2	400.2
0	62070	4330.2	300.2
0	62071	4330.2	200.2
0	62295	4340.2	700.2
0	62296	4340.2	600.2
0	62297	4340.2	500.2
0	62298	4340.2	400.2
0	62299	4340.2	300.2
0	62300	4340.2	600.2
0	62301	4340.2	500.2
0	62302	4340.2	400.2
0	62303	4340.2	300.2
0	62304	4340.2	200.2
0	62528	4350.2	700.2
0	62529	4350.2	600.2
0	62530	4350.2	500.2
0	62531	4350.2	400.2
0	62532	4350.2	300.2
0	62533	4350.2	600.2
0	62534	4350.2	500.2
0	62535	4350.2	400.2
0	62536	4350.2	300.2
0	62537	4350.2	200.2
0	62761	4360.2	700.2
0	62762	4360.2	600.2
0	62763	4360.2	500.2
0	62764	4360.2	400.2
0	62765	4360.2	300.2
0	62766	4360.2	600.2
0	62767	4360.2	500.2
0	62768	4360.2	400.2
0	62769	4360.2	300.2
0	62770	4360.2	200.2
0	63026	4370.2	800.2
0	63027	4370.2	700.2
0	63028	4370.2	600.2
0	63029	4370.2	500.2
0	63030	4370.2	400.2
0	63031	4370.2	300.2
0	63032	4370.2	600.2
0	63033	4370.2	500.2
0	63034	4370.2	400.2
0	63035	4370.2	300.2
0	63036	4370.2	200.2
0	63296	4380.2	800.2
0	63297	4380.2	700.2
0	63298	4380.2	600.2
0	63299	4380.2	500.2
0	63300	4380.2	400.2
0	63301	4380.2	300.2
0	63302	4380.2	600.2
0	63303	4380.2	500.2
0	63304	4380.2	400.2
0	63305	4380.2	300.2
0	63306	4380.2	200.2
0	63566	4390.2	800.2
0	63567	4390.2	700.2
0	63568	4390.2	600.2
0	63569	4390.2	500.2
0	63570	4390.2	400.2
0	63571	4390.2	300.2
0	63572	4390.2	600.2
0	63573	4390.2	500.2
0	63574	4390.2	400.2
0	63575	4390.2	300.2
0	63576	4390.2	200.2
0	63836	4400.2	800.2
0	63837	4400.2	700.2
0	63838	4400.2	600.2
0	63839	4400.2	500.2
0	63840	4400.2	400.2
0	63841	4400.2	300.2
0	63842	4400.2	600.2
0	63843	4400.2	500.2
0	63844	4400.2	400.2
0	63845	4400.2	300.2
0	63846	4400.2	200.2
0	64071	4410.2	800.2
0	64072	4410.2	700.2
0	64073	4410.2	600.2
0	64074	4410.2	500.2
0	64075	4410.2	400.2
0	64076	4410.2	300.2
0	64077	4410.2	600.2
0	64078	4410.2	500.2
0	64079	4410.2	400.2
0	64080	4410.2	300.2
0	64081	4410.2	200.2
0	64294	4420.2	800.2
0	64295	4420.2	700.2
0	64296	4420.2	600.2
0	64297	4420.2	500.2
0	64298	4420.2	400.2
0	64299	4420.2	300.2
0	64300	4420.2	600.2
0	64301	4420.2	500.2
0	64302	4420.2	400.2
0	64303	4420.2	300.2
0	64304	4420.2	200.2
0	64516	4430.2	800.2
0	64517	4430.2	700.2
0	64518	4430.2	600.2
0	64519	4430.2	500.2
0	64520	4430.2	400.2
0	64521	4430.2	300.2
0	64522	4430.2	600.2
0	64523	4430.2	500.2
0	64524	4430.2	400.2
0	64525	4430.2	300.2
0	64526	4430.2	200.2
0	64738	4440.2	800.2
0	64739	4440.2	700.2
0	64740	4440.2	600.2
0	64741	4440.2	500.2
0	64742	4440.2	400.2
0	64743	4440.2	300.2
0	64744	4440.2	600.2
0	64745	4440.2	500.2
0	64746	4440.2	400.2
0	64747	4440.2	300.2
0	64748	4440.2	200.2
0	64956	4450.2	800.2
0	64957	4450.2	700.2
0	64958	4450.2	600.2
0	64959	4450.2	500.2
0	64960	4450.2	400.2
0	64961	4450.2	300.2
0	64962	4450.2	600.2
0	64963	4450.2	500.2
0	64964	4450.2	400.2
0	64965	4450.2	300.2
0	64966	4450.2	200.2
0	65167	4460.2	800.2
0	65168	4460.2	700.2
0	65169	4460.2	600.2
0	65170	4460.2	500.2
0	65171	4460.2	400.2
0	65172	4460.2	300.2
0	65173	4460.2	600.2
0	65174	4460.2	500.2
0	65175	4460.2	400.2
0	65176	4460.2	300.2
0	65177	4460.2	200.2
0	65426	4470.2	900.2
0	65427	4470.2	800.2
0	65428	4470.2	700.2
0	65429	4470.2	600.2
0	65430	4470.2	500.2
0	65431	4470.2	400.2
0	65432	4470.2	300.2
0	65433	4470.2	600.2
0	65434	4470.2	500.2
0	65435	4470.2	400.2
0	65436	4470.2	300.2
0	65437	4470.2	200.2
0	65699	4480.2	900.2
0	65700	4480.2	800.2
0	65701	4480.2	700.2
0	65702	4480.2	600.2
0	65703	4480.2	500.2
0	65704	4480.2	400.2
0	65705	4480.2	300.2
0	65706	4480.2	600.2
0	65707	4480.2	500.2
0	65708	4480.2	400.2
0	65709	4480.2	300.2
0	65710	4480.2	200.2
0	65952	4490.2	900.2
0	65953	4490.2	800.2
0	65954	4490.2	700.2
0	65955	4490.2	600.2
0	65956	4490.2	500.2
0	65957	4490.2	400.2
0	65958	4490.2	300.2
0	65959	4490.2	600.2
0	65960	4490.2	500.2
0	65961	4490.2	400.2
0	65962	4490.2	300.2
0	65963	4490.2	200.2
0	66205	4500.2	900.2
0	66206	4500.2	800.2
0	66207	4500.2	700.2
0	66208	4500.2	600.2
0	66209	4500.2	500.2
0	66210	4500.2	400.2
0	66211	4500.2	300.2
0	66212	4500.2	600.2
0	66213	4500.2	500.2
0	66214	4500.2	400.2
0	66215	4500.2	300.2
0	66216	4500.2	200.2
0	66452	4510.2	900.2
0	66453	4510.2	800.2
0	66454	4510.2	700.2
0	66455	4510.2	600.2
0	66456	4510.2	500.2
0	66457	4510.2	400.2
0	66458	4510.2	300.2
0	66459	4510.2	600.2
0	66460	4510.2	500.2
0	66461	4510.2	400.2
0	66462	4510.2	300.2
0	66463	4510.2	200.2
0	66899	4520.2	900.2
0	66900	4520.2	800.2
0	66901	4520.2	700.2
0	66902	4520.2	600.2
0	66903	4520.2	500.2
0	66904	4520.2	400.2
0	66905	4520.2	300.2
0	66906	4520.2	600.2
0	66907	4520.2	500.2
0	66908	4520.2	400.2
0	66909	4520.2	300.2
0	66910	4520.2	200.2
0	67146	4530.2	900.2
0	67147	4530.2	800.2
0	67148	4530.2	700.2
0	67149	4530.2	600.2
0	67150	4530.2	500.2
0	67151	4530.2	400.2
0	67152	4530.2	300.2
0	67153	4530.2	600.2
0	67154	4530.2	500.2
0	67155	4530.2	400.2
0	67156	4530.2	300.2
0	67157	4530.2	200.2
0	69534	4540.2	600.2
0	69535	4540.2	500.2
0	69536	4540.2	400.2
0	69537	4540.2	300.2
0	69538	4540.2	200.2
0	70032	4550.2	600.2
0	70033	4550.2	500.2
0	70034	4550.2	400.2
0	70035	4550.2	300.2
0	70036	4550.2	200.2
0	70260	4560.2	600.2
0	70261	4560.2	500.2
0	70262	4560.2	400.2
0	70263	4560.2	300.2
0	70264	4560.2	200.2
0	70531	4570.2	700.2
0	70532	4570.2	600.2
0	70533	4570.2	500.2
0	70534	4570.2	400.2
0	70535	4570.2	300.2
0	70536	4570.2	300.2
0	70537	4570.2	200.2
0	70821	4580.2	700.2
0	70822	4580.2	600.2
0	70823	4580.2	500.2
0	70824	4580.2	400.2
0	70825	4580.2	300.2
0	70826	4580.2	300.2
0	70827	4580.2	200.2
0	71100	4590.2	700.2
0	71101	4590.2	600.2
0	71102	4590.2	500.2
0	71103	4590.2	400.2
0	71104	4590.2	300.2
0	71105	4590.2	300.2
0	71106	4590.2	200.2
0	71379	4600.2	700.2
0	71380	4600.2	600.2
0	71381	4600.2	500.2
0	71382	4600.2	400.2
0	71383	4600.2	300.2
0	71384	4600.2	300.2
0	71385	4600.2	200.2
0	71658	4610.2	700.2
0	71659	4610.2	600.2
0	71660	4610.2	500.2
0	71661	4610.2	400.2
0	71662	4610.2	300.2
0	71663	4610.2	300.2
0	71664	4610.2	200.2
0	71937	4620.2	700.2
0	71938	4620.2	600.2
0	71939	4620.2	500.2
0	71940	4620.2	400.2
0	71941	4620.2	300.2
0	71942	4620.2	300.2
0	71943	4620.2	200.2
0	72216	4630.2	700.2
0	72217	4630.2	600.2
0	72218	4630.2	500.2
0	72219	4630.2	400.2
0	72220	4630.2	300.2
0	72221	4630.2	300.2
0	72222	4630.2	200.2
0	72488	4640.2	700.2
0	72489	4640.2	600.2
0	72490	4640.2	500.2
0	72491	4640.2	400.2
0	72492	4640.2	300.2
0	72493	4640.2	300.2
0	72494	4640.2	200.2
0	72758	4650.2	700.2
0	72759	4650.2	300.2
0	72760	4650.2	600.2
0	72761	4650.2	200.2
0	72762	4650.2	500.2
0	72763	4650.2	400.2
0	72764	4650.2	300.2
0	73028	4660.2	700.2
0	73029	4660.2	300.2
0	73030	4660.2	600.2
0	73031	4660.2	200.2
0	73032	4660.2	500.2
0	73033	4660.2	400.2
0	73034	4660.2	300.2
0	73342	4670.2	800.2
0	73343	4670.2	400.2
0	73344	4670.2	700.2
0	73345	4670.2	300.2
0	73346	4670.2	600.2
0	73347	4670.2	200.2
0	73348	4670.2	500.2
0	73349	4670.2	400.2
0	73350	4670.2	300.2
0	73672	4680.2	800.2
0	73673	4680.2	400.2
0	73674	4680.2	700.2
0	73675	4680.2	300.2
0	73676	4680.2	600.2
0	73677	4680.2	200.2
0	73678	4680.2	500.2
0	73679	4680.2	400.2
0	73680	4680.2	300.2
0	73895	4690.2	400.2
0	73896	4690.2	300.2
0	73897	4690.2	200.2
0	74069	4700.2	400.2
0	74070	4700.2	300.2
0	74071	4700.2	200.2
0	74243	4710.2	400.2
0	74244	4710.2	300.2
0	74245	4710.2	200.2
0	74417	4720.2	400.2
0	74418	4720.2	300.2
0	74419	4720.2	200.2
0	74591	4730.2	400.2
0	74592	4730.2	300.2
0	74593	4730.2	200.2
0	74765	4740.2	400.2
0	74766	4740.2	300.2
0	74767	4740.2	200.2
0	74939	4750.2	400.2
0	74940	4750.2	300.2
0	74941	4750.2	200.2
0	75113	4760.2	400.2
0	75114	4760.2	300.2
0	75115	4760.2	200.2
0	75325	4770.2	500.2
0	75326	4770.2	400.2
0	75327	4770.2	300.2
0	75328	4770.2	200.2
0	75547	4780.2	500.2
0	75548	4780.2	400.2
0	75549	4780.2	300.2
0	75550	4780.2	200.2
0	75757	4790.2	500.2
0	75758	4790.2	400.2
0	75759	4790.2	300.2
0	75760	4790.2	200.2
0	75967	4800.2	500.2
0	75968	4800.2	400.2
0	75969	4800.2	300.2
0	75970	4800.2	200.2
0	76151	4810.16	500.16
0	76152	4810.16	400.16
0	76153	4810.16	300.16
0	76154	4810.16	200.16
0	76378	4820.16	500.16
0	76379	4820.16	400.16
0	76380	4820.16	300.16
0	76381	4820.16	200.16
0	76606	4830.16	500.16
0	76607	4830.16	400.16
0	76608	4830.16	300.16
0	76609	4830.16	200.16
0	76832	4840.16	500.16
0	76833	4840.16	400.16
0	76834	4840.16	300.16
0	76835	4840.16	200.16
0	77042	4850.16	500.16
0	77043	4850.16	400.16
0	77044	4850.16	300.16
0	77045	4850.16	200.16
0	77242	4860.16	500.16
0	77243	4860.16	400.16
0	77244	4860.16	300.16
0	77245	4860.16	200.16
0	77463	4870.16	600.16
0	77464	4870.16	500.16
0	77465	4870.16	400.16
0	77466	4870.16	300.16
0	77467	4870.16	200.16
0	77701	4880.16	600.16
0	77702	4880.16	500.16
0	77703	4880.16	400.16
0	77704	4880.16	300.16
0	77705	4880.16	200.16
0	77895	4890.16	600.16
0	77896	4890.16	500.16
0	77897	4890.16	400.16
0	77898	4890.16	300.16
0	77899	4890.16	200.16
0	78057	4900.16	600.16
0	78058	4900.16	500.16
0	78059	4900.16	400.16
0	78060	4900.16	300.16
0	78061	4900.16	200.16
0	78219	4910.16	600.16
0	78220	4910.16	500.16
0	78221	4910.16	400.16
0	78222	4910.16	300.16
0	78223	4910.16	200.16
0	78377	4920.16	600.16
0	78378	4920.16	500.16
0	78379	4920.16	400.16
0	78380	4920.16	300.16
0	78381	4920.16	200.16
0	78535	4930.16	600.16
0	78536	4930.16	500.16
0	78537	4930.16	400.16
0	78538	4930.16	300.16
0	78539	4930.16	200.16
0	78693	4940.16	600.16
0	78694	4940.16	500.16
0	78695	4940.16	400.16
0	78696	4940.16	300.16
0	78697	4940.16	200.16
0	78849	4950.16	600.16
0	78850	4950.16	500.16
0	78851	4950.16	400.16
0	78852	4950.16	300.16
0	78853	4950.16	200.16
0	79005	4960.16	600.16
0	79006	4960.16	500.16
0	79007	4960.16	400.16
0	79008	4960.16	300.16
0	79009	4960.16	200.16
0	79174	4970.16	700.16
0	79175	4970.16	600.16
0	79176	4970.16	500.16
0	79177	4970.16	400.16
0	79178	4970.16	300.16
0	79179	4970.16	200.16
0	79354	4980.16	700.16
0	79355	4980.16	600.16
0	79356	4980.16	500.16
0	79357	4980.16	400.16
0	79358	4980.16	300.16
0	79359	4980.16	200.16
0	79534	4990.16	700.16
0	79535	4990.16	600.16
0	79536	4990.16	500.16
0	79537	4990.16	400.16
0	79538	4990.16	300.16
0	79539	4990.16	200.16
0	79714	5000.16	700.16
0	79715	5000.16	600.16
0	79716	5000.16	500.16
0	79717	5000.16	400.16
0	79718	5000.16	300.16
0	79719	5000.16	200.16
0	79894	5010.16	700.16
0	79895	5010.16	600.16
0	79896	5010.16	500.16
0	79897	5010.16	400.16
0	79898	5010.16	300.16
0	79899	5010.16	200.16
0	80074	5020.16	700.16
0	80075	5020.16	600.16
0	80076	5020.16	500.16
0	80077	5020.16	400.16
0	80078	5020.16	300.16
0	80079	5020.16	200.16
0	80254	5030.16	700.16
0	80255	5030.16	600.16
0	80256	5030.16	500.16
0	80257	5030.16	400.16
0	80258	5030.16	300.16
0	80259	5030.16	200.16
0	80434	5040.16	700.16
0	80435	5040.16	600.16
0	80436	5040.16	500.16
0	80437	5040.16	400.16
0	80438	5040.16	300.16
0	80439	5040.16	200.16
0	80594	5050.16	500.16
0	80595	5050.16	400.16
0	80596	5050.16	300.16
0	80597	5050.16	200.16
0	80732	5060.16	500.16
0	80733	5060.16	400.16
0	80734	5060.16	300.16
0	80735	5060.16	200.16
0	80873	5070.16	500.16
0	80874	5070.16	400.16
0	80875	5070.16	300.16
0	80876	5070.16	200.16
0	81014	5080.16	500.16
0	81015	5080.16	400.16
0	81016	5080.16	300.16
0	81017	5080.16	200.16
0	81155	5090.16	500.16
0	81156	5090.16	400.16
0	81157	5090.16	300.16
0	81158	5090.16	200.16
0	81296	5100.16	500.16
0	81297	5100.16	400.16
0	81298	5100.16	300.16
0	81299	5100.16	200.16
0	81437	5110.16	500.16
0	81438	5110.16	400.16
0	81439	5110.16	300.16
0	81440	5110.16	200.16
0	81578	5120.16	500.16
0	81579	5120.16	400.16
0	81580	5120.16	300.16
0	81581	5120.16	200.16
0	81722	5130.16	500.16
0	81723	5130.16	400.16
0	81724	5130.16	300.16
0	81725	5130.16	200.16
0	81864	5140.16	500.16
0	81865	5140.16	400.16
0	81866	5140.16	300.16
0	81867	5140.16	200.16
0	82004	5150.16	500.16
0	82005	5150.16	400.16
0	82006	5150.16	300.16
0	82007	5150.16	200.16
0	82144	5160.16	500.16
0	82145	5160.16	400.16
0	82146	5160.16	300.16
0	82147	5160.16	200.16
0	82286	5170.16	500.16
0	82287	5170.16	400.16
0	82288	5170.16	300.16
0	82289	5170.16	200.16
0	82428	5180.16	500.16
0	82429	5180.16	400.16
0	82430	5180.16	300.16
0	82431	5180.16	200.16
0	82570	5190.16	500.16
0	82571	5190.16	400.16
0	82572	5190.16	300.16
0	82573	5190.16	200.16
0	82712	5200.16	500.16
0	82713	5200.16	400.16
0	82714	5200.16	300.16
0	82715	5200.16	200.16
0	82854	5210.16	500.16
0	82855	5210.16	400.16
0	82856	5210.16	300.16
0	82857	5210.16	200.16
0	82996	5220.16	500.16
0	82997	5220.16	400.16
0	82998	5220.16	300.16
0	82999	5220.16	200.16
0	83138	5230.16	500.16
0	83139	5230.16	400.16
0	83140	5230.16	300.16
0	83141	5230.16	200.16
0	83280	5240.16	500.16
0	83281	5240.16	400.16
0	83282	5240.16	300.16
0	83283	5240.16	200.16
0	83418	5250.16	500.16
0	83419	5250.16	400.16
0	83420	5250.16	300.16
0	83421	5250.16	200.16
0	83556	5260.16	500.16
0	83557	5260.16	400.16
0	83558	5260.16	300.16
0	83559	5260.16	200.16
0	83694	5270.16	500.16
0	83695	5270.16	400.16
0	83696	5270.16	300.16
0	83697	5270.16	200.16
0	83832	5280.16	500.16
0	83833	5280.16	400.16
0	83834	5280.16	300.16
0	83835	5280.16	200.16
0	83970	5290.16	500.16
0	83971	5290.16	400.16
0	83972	5290.16	300.16
0	83973	5290.16	200.16
0	84108	5300.16	500.16
0	84109	5300.16	400.16
0	84110	5300.16	300.16
0	84111	5300.16	200.16
0	84246	5310.16	500.16
0	84247	5310.16	400.16
0	84248	5310.16	300.16
0	84249	5310.16	200.16
0	84384	5320.16	500.16
0	84385	5320.16	400.16
0	84386	5320.16	300.16
0	84387	5320.16	200.16
0	84522	5330.16	500.16
0	84523	5330.16	400.16
0	84524	5330.16	300.16
0	84525	5330.16	200.16
0	84660	5340.16	500.16
0	84661	5340.16	400.16
0	84662	5340.16	300.16
0	84663	5340.16	200.16
0	84798	5350.16	500.16
0	84799	5350.16	400.16
0	84800	5350.16	300.16
0	84801	5350.16	200.16
0	84936	5360.16	500.16
0	84937	5360.16	400.16
0	84938	5360.16	300.16
0	84939	5360.16	200.16
0	85074	5370.16	500.16
0	85075	5370.16	400.16
0	85076	5370.16	300.16
0	85077	5370.16	200.16
0	85212	5380.16	500.16
0	85213	5380.16	400.16
0	85214	5380.16	300.16
0	85215	5380.16	200.16
0	85350	5390.16	500.16
0	85351	5390.16	400.16
0	85352	5390.16	300.16
0	85353	5390.16	200.16
0	85488	5400.16	500.16
0	85489	5400.16	400.16
0	85490	5400.16	300.16
0	85491	5400.16	200.16
0	85626	5410.16	500.16
0	85627	5410.16	400.16
0	85628	5410.16	300.16
0	85629	5410.16	200.16
0	85764	5420.16	500.16
0	85765	5420.16	400.16
0	85766	5420.16	300.16
0	85767	5420.16	200.16
0	85902	5430.16	500.16
0	85903	5430.16	400.16
0	85904	5430.16	300.16
0	85905	5430.16	200.16
0	86040	5440.16	500.16
0	86041	5440.16	400.16
0	86042	5440.16	300.16
0	86043	5440.16	200.16
0	86178	5450.16	500.16
0	86179	5450.16	400.16
0	86180	5450.16	300.16
0	86181	5450.16	200.16
0	86316	5460.16	500.16
0	86317	5460.16	400.16
0	86318	5460.16	300.16
0	86319	5460.16	200.16
0	86454	5470.16	500.16
0	86455	5470.16	400.16
0	86456	5470.16	300.16
0	86457	5470.16	200.16
0	86592	5480.16	500.16
0	86593	5480.16	400.16
0	86594	5480.16	300.16
0	86595	5480.16	200.16
0	86730	5490.16	500.16
0	86731	5490.16	400.16
0	86732	5490.16	300.16
0	86733	5490.16	200.16
0	86868	5500.16	500.16
0	86869	5500.16	400.16
0	86870	5500.16	300.16
0	86871	5500.16	200.16
0	87006	5510.16	500.16
0	87007	5510.16	400.16
0	87008	5510.16	300.16
0	87009	5510.16	200.16
0	87144	5520.16	500.16
0	87145	5520.16	400.16
0	87146	5520.16	300.16
0	87147	5520.16	200.16
0	87282	5530.16	500.16
0	87283	5530.16	400.16
0	87284	5530.16	300.16
0	87285	5530.16	200.16
0	87420	5540.16	500.16
0	87421	5540.16	400.16
0	87422	5540.16	300.16
0	87423	5540.16	200.16
0	87558	5550.16	500.16
0	87559	5550.16	400.16
0	87560	5550.16	300.16
0	87561	5550.16	200.16
0	87696	5560.16	500.16
0	87697	5560.16	400.16
0	87698	5560.16	300.16
0	87699	5560.16	200.16
0	87834	5570.16	500.16
0	87835	5570.16	400.16
0	87836	5570.16	300.16
0	87837	5570.16	200.16
0	87972	5580.16	500.16
0	87973	5580.16	400.16
0	87974	5580.16	300.16
0	87975	5580.16	200.16
0	88110	5590.16	500.16
0	88111	5590.16	400.16
0	88112	5590.16	300.16
0	88113	5590.16	200.16
0	88248	5600.16	500.16
0	88249	5600.16	400.16
0	88250	5600.16	300.16
0	88251	5600.16	200.16
0	88386	5610.16	500.16
0	88387	5610.16	400.16
0	88388	5610.16	300.16
0	88389	5610.16	200.16
0	88524	5620.16	500.16
0	88525	5620.16	400.16
0	88526	5620.16	300.16
0	88527	5620.16	200.16
0	88662	5630.16	500.16
0	88663	5630.16	400.16
0	88664	5630.16	300.16
0	88665	5630.16	200.16
0	88800	5640.16	500.16
0	88801	5640.16	400.16
0	88802	5640.16	300.16
0	88803	5640.16	200.16
0	88938	5650.16	500.16
0	88939	5650.16	400.16
0	88940	5650.16	300.16
0	88941	5650.16	200.16
0	89076	5660.16	500.16
0	89077	5660.16	400.16
0	89078	5660.16	300.16
0	89079	5660.16	200.16
0	89214	5670.16	500.16
0	89215	5670.16	400.16
0	89216	5670.16	300.16
0	89217	5670.16	200.16
0	89352	5680.16	500.16
0	89353	5680.16	400.16
0	89354	5680.16	300.16
0	89355	5680.16	200.16
0	89490	5690.16	500.16
0	89491	5690.16	400.16
0	89492	5690.16	300.16
0	89493	5690.16	200.16
0	89628	5700.16	500.16
0	89629	5700.16	400.16
0	89630	5700.16	300.16
0	89631	5700.16	200.16
0	89766	5710.16	500.16
0	89767	5710.16	400.16
0	89768	5710.16	300.16
0	89769	5710.16	200.16
0	89904	5720.16	500.16
0	89905	5720.16	400.16
0	89906	5720.16	300.16
0	89907	5720.16	200.16
0	90042	5730.16	500.16
0	90043	5730.16	400.16
0	90044	5730.16	300.16
0	90045	5730.16	200.16
0	90180	5740.16	500.16
0	90181	5740.16	400.16
0	90182	5740.16	300.16
0	90183	5740.16	200.16
0	90318	5750.16	500.16
0	90319	5750.16	400.16
0	90320	5750.16	300.16
0	90321	5750.16	200.16
0	90456	5760.16	500.16
0	90457	5760.16	400.16
0	90458	5760.16	300.16
0	90459	5760.16	200.16
0	90594	5770.16	500.16
0	90595	5770.16	400.16
0	90596	5770.16	300.16
0	90597	5770.16	200.16
0	90732	5780.16	500.16
0	90733	5780.16	400.16
0	90734	5780.16	300.16
0	90735	5780.16	200.16
0	90870	5790.16	500.16
0	90871	5790.16	400.16
0	90872	5790.16	300.16
0	90873	5790.16	200.16
0	91008	5800.16	500.16
0	91009	5800.16	400.16
0	91010	5800.16	300.16
0	91011	5800.16	200.16
0	91146	5810.16	500.16
0	91147	5810.16	400.16
0	91148	5810.16	300.16
0	91149	5810.16	200.16
0	91284	5820.16	500.16
0	91285	5820.16	400.16
0	91286	5820.16	300.16
0	91287	5820.16	200.16
0	91422	5830.16	500.16
0	91423	5830.16	400.16
0	91424	5830.16	300.16
0	91425	5830.16	200.16
0	91560	5840.16	500.16
0	91561	5840.16	400.16
0	91562	5840.16	300.16
0	91563	5840.16	200.16
0	91698	5850.16	500.16
0	91699	5850.16	400.16
0	91700	5850.16	300.16
0	91701	5850.16	200.16
0	91836	5860.16	500.16
0	91837	5860.16	400.16
0	91838	5860.16	300.16
0	91839	5860.16	200.16
0	91974	5870.16	500.16
0	91975	5870.16	400.16
0	91976	5870.16	300.16
0	91977	5870.16	200.16
0	92112	5880.16	500.16
0	92113	5880.16	400.16
0	92114	5880.16	300.16
0	92115	5880.16	200.16
0	92250	5890.16	500.16
0	92251	5890.16	400.16
0	92252	5890.16	300.16
0	92253	5890.16	200.16
0	92388	5900.16	500.16
0	92389	5900.16	400.16
0	92390	5900.16	300.16
0	92391	5900.16	200.16
0	92526	5910.16	500.16
0	92527	5910.16	400.16
0	92528	5910.16	300.16
0	92529	5910.16	200.16
0	92664	5920.16	500.16
0	92665	5920.16	400.16
0	92666	5920.16	300.16
0	92667	5920.16	200.16
0	92802	5930.16	500.16
0	92803	5930.16	400.16
0	92804	5930.16	300.16
0	92805	5930.16	200.16
0	92940	5940.16	500.16
0	92941	5940.16	400.16
0	92942	5940.16	300.16
0	92943	5940.16	200.16
0	93078	5950.16	500.16
0	93079	5950.16	400.16
0	93080	5950.16	300.16
0	93081	5950.16	200.16
0	93216	5960.16	500.16
0	93217	5960.16	400.16
0	93218	5960.16	300.16
0	93219	5960.16	200.16
0	93354	5970.16	500.16
0	93355	5970.16	400.16
0	93356	5970.16	300.16
0	93357	5970.16	200.16
0	93492	5980.16	500.16
0	93493	5980.16	400.16
0	93494	5980.16	300.16
0	93495	5980.16	200.16
0	93630	5990.16	500.16
0	93631	5990.16	400.16
0	93632	5990.16	300.16
0	93633	5990.16	200.16
0	93768	6000.16	500.16
0	93769	6000.16	400.16
0	93770	6000.16	300.16
0	93771	6000.16	200.16
0	93906	6010.16	500.16
0	93907	6010.16	400.16
0	93908	6010.16	300.16
0	93909	6010.16	200.16
0	94044	6020.16	500.16
0	94045	6020.16	400.16
0	94046	6020.16	300.16
0	94047	6020.16	200.16
0	94182	6030.16	500.16
0	94183	6030.16	400.16
0	94184	6030.16	300.16
0	94185	6030.16	200.16
0	94320	6040.16	500.16
0	94321	6040.16	400.16
0	94322	6040.16	300.16
0	94323	6040.16	200.16
0	94458	6050.16	500.16
0	94459	6050.16	400.16
0	94460	6050.16	300.16
0	94461	6050.16	200.16
0	94596	6060.16	500.16
0	94597	6060.16	400.16
0	94598	6060.16	300.16
0	94599	6060.16	200.16
0	94734	6070.16	500.16
0	94735	6070.16	400.16
0	94736	6070.16	300.16
0	94737	6070.16	200.16
0	94872	6080.16	500.16
0	94873	6080.16	400.16
0	94874	6080.16	300.16
0	94875	6080.16	200.16
0	95010	6090.16	500.16
0	95011	6090.16	400.16
0	95012	6090.16	300.16
0	95013	6090.16	200.16
0	95148	6100.16	500.16
0	95149	6100.16	400.16
0	95150	6100.16	300.16
0	95151	6100.16	200.16
0	95286	6110.16	500.16
0	95287	6110.16	400.16
0	95288	6110.16	300.16
0	95289	6110.16	200.16
0	95424	6120.16	500.16
0	95425	6120.16	400.16
0	95426	6120.16	300.16
0	95427	6120.16	200.16
0	95562	6130.16	500.16
0	95563	6130.16	400.16
0	95564	6130.16	300.16
0	95565	6130.16	200.16
0	95700	6140.16	500.16
0	95701	6140.16	400.16
0	95702	6140.16	300.16
0	95703	6140.16	200.16
0	95838	6150.16	500.16
0	95839	6150.16	400.16
0	95840	6150.16	300.16
0	95841	6150.16	200.16
0	95976	6160.16	500.16
0	95977	6160.16	400.16
0	95978	6160.16	300.16
0	95979	6160.16	200.16
0	96114	6170.16	500.16
0	96115	6170.16	400.16
0	96116	6170.16	300.16
0	96117	6170.16	200.16
0	96252	6180.16	500.16
0	96253	6180.16	400.16
0	96254	6180.16	300.16
0	96255	6180.16	200.16
0	96390	6190.16	500.16
0	96391	6190.16	400.16
0	96392	6190.16	300.16
0	96393	6190.16	200.16
0	96528	6200.16	500.16
0	96529	6200.16	400.16
0	96530	6200.16	300.16
0	96531	6200.16	200.16
0	96666	6210.16	500.16
0	96667	6210.16	400.16
0	96668	6210.16	300.16
0	96669	6210.16	200.16
0	96804	6220.16	500.16
0	96805	6220.16	400.16
0	96806	6220.16	300.16
0	96807	6220.16	200.16
0	96942	6230.16	500.16
0	96943	6230.16	400.16
0	96944	6230.16	300.16
0	96945	6230.16	200.16
0	97080	6240.16	500.16
0	97081	6240.16	400.16
0	97082	6240.16	300.16
0	97083	6240.16	200.16
0	97218	6250.16	500.16
0	97219	6250.16	400.16
0	97220	6250.16	300.16
0	97221	6250.16	200.16
0	97356	6260.16	500.16
0	97357	6260.16	400.16
0	97358	6260.16	300.16
0	97359	6260.16	200.16
0	97494	6270.16	500.16
0	97495	6270.16	400.16
0	97496	6270.16	300.16
0	97497	6270.16	200.16
0	97632	6280.16	500.16
0	97633	6280.16	400.16
0	97634	6280.16	300.16
0	97635	6280.16	200.16
0	97770	6290.16	500.16
0	97771	6290.16	400.16
0	97772	6290.16	300.16
0	97773	6290.16	200.16
0	97908	6300.16	500.16
0	97909	6300.16	400.16
0	97910	6300.16	300.16
0	97911	6300.16	200.16
0	98046	6310.16	500.16
0	98047	6310.16	400.16
0	98048	6310.16	300.16
0	98049	6310.16	200.16
0	98184	6320.16	500.16
0	98185	6320.16	400.16
0	98186	6320.16	300.16
0	98187	6320.16	200.16
0	98322	6330.16	500.16
0	98323	6330.16	400.16
0	98324	6330.16	300.16
0	98325	6330.16	200.16
0	98460	6340.16	500.16
0	98461	6340.16	400.16
0	98462	6340.16	300.16
0	98463	6340.16	200.16
0	98598	6350.16	500.16
0	98599	6350.16	400.16
0	98600	6350.16	300.16
0	98601	6350.16	200.16
0	98736	6360.16	500.16
0	98737	6360.16	400.16
0	98738	6360.16	300.16
0	98739	6360.16	200.16
0	98874	6370.16	500.16
0	98875	6370.16	400.16
0	98876	6370.16	300.16
0	98877	6370.16	200.16
0	99012	6380.16	500.16
0	99013	6380.16	400.16
0	99014	6380.16	300.16
0	99015	6380.16	200.16
0	99150	6390.16	500.16
0	99151	6390.16	400.16
0	99152	6390.16	300.16
0	99153	6390.16	200.16
0	99288	6400.16	500.16
0	99289	6400.16	400.16
0	99290	6400.16	300.16
0	99291	6400.16	200.16
0	99426	6410.16	500.16
0	99427	6410.16	400.16
0	99428	6410.16	300.16
0	99429	6410.16	200.16
0	99564	6420.16	500.16
0	99565	6420.16	400.16
0	99566	6420.16	300.16
0	99567	6420.16	200.16
0	99702	6430.16	500.16
0	99703	6430.16	400.16
0	99704	6430.16	300.16
0	99705	6430.16	200.16
0	99840	6440.16	500.16
0	99841	6440.16	400.16
0	99842	6440.16	300.16
0	99843	6440.16	200.16
0	99978	6450.16	500.16
0	99979	6450.16	400.16
0	99980	6450.16	300.16
0	99981	6450.16	200.16
0	100116	6460.16	500.16
0	100117	6460.16	400.16
0	100118	6460.16	300.16
0	100119	6460.16	200.16
0	100254	6470.16	500.16
0	100255	6470.16	400.16
0	100256	6470.16	300.16
0	100257	6470.16	200.16
0	100392	6480.16	500.16
0	100393	6480.16	400.16
0	100394	6480.16	300.16
0	100395	6480.16	200.16
0	100530	6490.16	500.16
0	100531	6490.16	400.16
0	100532	6490.16	300.16
0	100533	6490.16	200.16
0	100668	6500.16	500.16
0	100669	6500.16	400.16
0	100670	6500.16	300.16
0	100671	6500.16	200.16
0	100806	6510.16	500.16
0	100807	6510.16	400.16
0	100808	6510.16	300.16
0	100809	6510.16	200.16
0	100944	6520.16	500.16
0	100945	6520.16	400.16
0	100946	6520.16	300.16
0	100947	6520.16	200.16
0	101082	6530.16	500.16
0	101083	6530.16	400.16
0	101084	6530.16	300.16
0	101085	6530.16	200.16
0	101220	6540.16	500.16
0	101221	6540.16	400.16
0	101222	6540.16	300.16
0	101223	6540.16	200.16
0	101358	6550.16	500.16
0	101359	6550.16	400.16
0	101360	6550.16	300.16
0	101361	6550.16	200.16
0	101496	6560.16	500.16
0	101497	6560.16	400.16
0	101498	6560.16	300.16
0	101499	6560.16	200.16
0	101634	6570.16	500.16
0	101635	6570.16	400.16
0	101636	6570.16	300.16
0	101637	6570.16	200.16
0	101772	6580.16	500.16
0	101773	6580.16	400.16
0	101774	6580.16	300.16
0	101775	6580.16	200.16
0	101910	6590.16	500.16
0	101911	6590.16	400.16
0	101912	6590.16	300.16
0	101913	6590.16	200.16
0	102048	6600.16	500.16
0	102049	6600.16	400.16
0	102050	6600.16	300.16
0	102051	6600.16	200.16
0	102186	6610.16	500.16
0	102187	6610.16	400.16
0	102188	6610.16	300.16
0	102189	6610.16	200.16
0	102324	6620.16	500.16
0	102325	6620.16	400.16
0	102326	6620.16	300.16
0	102327	6620.16	200.16
0	102462	6630.16	500.16
0	102463	6630.16	400.16
0	102464	6630.16	300.16
0	102465	6630.16	200.16
0	102600	6640.16	500.16
0	102601	6640.16	400.16
0	102602	6640.16	300.16
0	102603	6640.16	200.16
0	102738	6650.16	500.16
0	102739	6650.16	400.16
0	102740	6650.16	300.16
0	102741	6650.16	200.16
0	102876	6660.16	500.16
0	102877	6660.16	400.16
0	102878	6660.16	300.16
0	102879	6660.16	200.16
0	103014	6670.16	500.16
0	103015	6670.16	400.16
0	103016	6670.16	300.16
0	103017	6670.16	200.16
0	103152	6680.16	500.16
0	103153	6680.16	400.16
0	103154	6680.16	300.16
0	103155	6680.16	200.16
0	103290	6690.16	500.16
0	103291	6690.16	400.16
0	103292	6690.16	300.16
0	103293	6690.16	200.16
0	103428	6700.16	500.16
0	103429	6700.16	400.16
0	103430	6700.16	300.16
0	103431	6700.16	200.16
0	103566	6710.16	500.16
0	103567	6710.16	400.16
0	103568	6710.16	300.16
0	103569	6710.16	200.16
0	103704	6720.16	500.16
0	103705	6720.16	400.16
0	103706	6720.16	300.16
0	103707	6720.16	200.16
0	103842	6730.16	500.16
0	103843	6730.16	400.16
0	103844	6730.16	300.16
0	103845	6730.16	200.16
0	103980	6740.16	500.16
0	103981	6740.16	400.16
0	103982	6740.16	300.16
0	103983	6740.16	200.16
0	104118	6750.16	500.16
0	104119	6750.16	400.16
0	104120	6750.16	300.16
0	104121	6750.16	200.16
0	104256	6760.16	500.16
0	104257	6760.16	400.16
0	104258	6760.16	300.16
0	104259	6760.16	200.16
0	104394	6770.16	500.16
0	104395	6770.16	400.16
0	104396	6770.16	300.16
0	104397	6770.16	200.16
0	104532	6780.16	500.16
0	104533	6780.16	400.16
0	104534	6780.16	300.16
0	104535	6780.16	200.16
0	104670	6790.16	500.16
0	104671	6790.16	400.16
0	104672	6790.16	300.16
0	104673	6790.16	200.16
0	104808	6800.16	500.16
0	104809	6800.16	400.16
0	104810	6800.16	300.16
0	104811	6800.16	200.16
0	104946	6810.16	500.16
0	104947	6810.16	400.16
0	104948	6810.16	300.16
0	104949	6810.16	200.16
0	105084	6820.16	500.16
0	105085	6820.16	400.16
0	105086	6820.16	300.16
0	105087	6820.16	200.16
0	105222	6830.16	500.16
0	105223	6830.16	400.16
0	105224	6830.16	300.16
0	105225	6830.16	200.16
0	105360	6840.16	500.16
0	105361	6840.16	400.16
0	105362	6840.16	300.16
0	105363	6840.16	200.16
0	105498	6850.16	500.16
0	105499	6850.16	400.16
0	105500	6850.16	300.16
0	105501	6850.16	200.16
0	105636	6860.16	500.16
0	105637	6860.16	400.16
0	105638	6860.16	300.16
0	105639	6860.16	200.16
0	105774	6870.16	500.16
0	105775	6870.16	400.16
0	105776	6870.16	300.16
0	105777	6870.16	200.16
0	105912	6880.16	500.16
0	105913	6880.16	400.16
0	105914	6880.16	300.16
0	105915	6880.16	200.16
0	106050	6890.16	500.16
0	106051	6890.16	400.16
0	106052	6890.16	300.16
0	106053	6890.16	200.16
0	106188	6900.16	500.16
0	106189	6900.16	400.16
0	106190	6900.16	300.16
0	106191	6900.16	200.16
0	106326	6910.16	500.16
0	106327	6910.16	400.16
0	106328	6910.16	300.16
0	106329	6910.16	200.16
0	106464	6920.16	500.16
0	106465	6920.16	400.16
0	106466	6920.16	300.16
0	106467	6920.16	200.16
0	106602	6930.16	500.16
0	106603	6930.16	400.16
0	106604	6930.16	300.16
0	106605	6930.16	200.16
0	106740	6940.16	500.16
0	106741	6940.16	400.16
0	106742	6940.16	300.16
0	106743	6940.16	200.16
0	106878	6950.16	500.16
0	106879	6950.16	400.16
0	106880	6950.16	300.16
0	106881	6950.16	200.16
0	107016	6960.16	500.16
0	107017	6960.16	400.16
0	107018	6960.16	300.16
0	107019	6960.16	200.16
0	107154	6970.16	500.16
0	107155	6970.16	400.16
0	107156	6970.16	300.16
0	107157	6970.16	200.16
0	107292	6980.16	500.16
0	107293	6980.16	400.16
0	107294	6980.16	300.16
0	107295	6980.16	200.16
0	107430	6990.16	500.16
0	107431	6990.16	400.16
0	107432	6990.16	300.16
0	107433	6990.16	200.16
0	107568	7000.16	500.16
0	107569	7000.16	400.16
0	107570	7000.16	300.16
0	107571	7000.16	200.16
0	107706	7010.16	500.16
0	107707	7010.16	400.16
0	107708	7010.16	300.16
0	107709	7010.16	200.16
0	107844	7020.16	500.16
0	107845	7020.16	400.16
0	107846	7020.16	300.16
0	107847	7020.16	200.16
0	107982	7030.16	500.16
0	107983	7030.16	400.16
0	107984	7030.16	300.16
0	107985	7030.16	200.16
0	108120	7040.16	500.16
0	108121	7040.16	400.16
0	108122	7040.16	300.16
0	108123	7040.16	200.16
0	108258	7050.16	500.16
0	108259	7050.16	400.16
0	108260	7050.16	300.16
0	108261	7050.16	200.16
0	108396	7060.16	500.16
0	108397	7060.16	400.16
0	108398	7060.16	300.16
0	108399	7060.16	200.16
0	108534	7070.16	500.16
0	108535	7070.16	400.16
0	108536	7070.16	300.16
0	108537	7070.16	200.16
0	108672	7080.16	500.16
0	108673	7080.16	400.16
0	108674	7080.16	300.16
0	108675	7080.16	200.16
0	108810	7090.16	500.16
0	108811	7090.16	400.16
0	108812	7090.16	300.16
0	108813	7090.16	200.16
0	108948	7100.16	500.16
[...]
0	208513	10070.16	1400.16
0	208514	10070.16	1300.16
0	208515	10070.16	1200.16
0	208516	10070.16	1100.16
0	208517	10070.16	1000.16
0	208518	10070.16	900.16
0	208519	10070.16	800.16
0	208520	10070.16	700.16
0	208521	10070.16	600.16
0	208522	10070.16	500.16
0	208523	10070.16	400.16
0	208524	10070.16	300.16
0	208525	10070.16	200.16
0	209090	10080.16	500.16
0	209091	10080.16	400.16
0	209092	10080.16	300.16
0	209093	10080.16	1500.16
0	209094	10080.16	1400.16
0	209095	10080.16	1300.16
0	209096	10080.16	1200.16
0	209097	10080.16	1100.16
0	209098	10080.16	1000.16
0	209099	10080.16	900.16
0	209100	10080.16	800.16
0	209101	10080.16	700.16
0	209102	10080.16	600.16
0	209103	10080.16	500.16
0	209104	10080.16	400.16
0	209105	10080.16	300.16
0	209106	10080.16	200.16
0	209671	10090.16	500.16
0	209672	10090.16	400.16
0	209673	10090.16	300.16
0	209674	10090.16	1500.16
0	209675	10090.16	1400.16
0	209676	10090.16	1300.16
0	209677	10090.16	1200.16
0	209678	10090.16	1100.16
0	209679	10090.16	1000.16
0	209680	10090.16	900.16
0	209681	10090.16	800.16
0	209682	10090.16	700.16
0	209683	10090.16	600.16
0	209684	10090.16	500.16
0	209685	10090.16	400.16
0	209686	10090.16	300.16
0	209687	10090.16	200.16
0	210252	10100.16	500.16
0	210253	10100.16	400.16
0	210254	10100.16	300.16
0	210255	10100.16	1500.16
0	210256	10100.16	1400.16
0	210257	10100.16	1300.16
0	210258	10100.16	1200.16
0	210259	10100.16	1100.16
0	210260	10100.16	1000.16
0	210261	10100.16	900.16
0	210262	10100.16	800.16
0	210263	10100.16	700.16
0	210264	10100.16	600.16
0	210265	10100.16	500.16
0	210266	10100.16	400.16
0	210267	10100.16	300.16
0	210268	10100.16	200.16
0	210833	10110.16	500.16
0	210834	10110.16	400.16
0	210835	10110.16	300.16
0	210836	10110.16	1500.16
0	210837	10110.16	1400.16
0	210838	10110.16	1300.16
0	210839	10110.16	1200.16
0	210840	10110.16	1100.16
0	210841	10110.16	1000.16
0	210842	10110.16	900.16
0	210843	10110.16	800.16
0	210844	10110.16	700.16
0	210845	10110.16	600.16
0	210846	10110.16	500.16
0	210847	10110.16	400.16
0	210848	10110.16	300.16
0	210849	10110.16	200.16
0	211414	10120.16	500.16
0	211415	10120.16	400.16
0	211416	10120.16	300.16
0	211417	10120.16	1500.16
0	211418	10120.16	1400.16
0	211419	10120.16	1300.16
0	211420	10120.16	1200.16
0	211421	10120.16	1100.16
0	211422	10120.16	1000.16
0	211423	10120.16	900.16
0	211424	10120.16	800.16
0	211425	10120.16	700.16
0	211426	10120.16	600.16
0	211427	10120.16	500.16
0	211428	10120.16	400.16
0	211429	10120.16	300.16
0	211430	10120.16	200.16
0	211995	10130.16	500.16
0	211996	10130.16	400.16
0	211997	10130.16	300.16
0	211998	10130.16	1500.16
0	211999	10130.16	1400.16
0	212000	10130.16	1300.16
0	212001	10130.16	1200.16
0	212002	10130.16	1100.16
0	212003	10130.16	1000.16
0	212004	10130.16	900.16
0	212005	10130.16	800.16
0	212006	10130.16	700.16
0	212007	10130.16	600.16
0	212008	10130.16	500.16
0	212009	10130.16	400.16
0	212010	10130.16	300.16
0	212011	10130.16	200.16
0	212576	10140.16	500.16
0	212577	10140.16	400.16
0	212578	10140.16	300.16
0	212579	10140.16	1500.16
0	212580	10140.16	1400.16
0	212581	10140.16	1300.16
0	212582	10140.16	1200.16
0	212583	10140.16	1100.16
0	212584	10140.16	1000.16
0	212585	10140.16	900.16
0	212586	10140.16	800.16
0	212587	10140.16	700.16
0	212588	10140.16	600.16
0	212589	10140.16	500.16
0	212590	10140.16	400.16
0	212591	10140.16	300.16
0	212592	10140.16	200.16
0	213183	10150.16	500.16
0	213184	10150.16	400.16
0	213185	10150.16	300.16
0	213186	10150.16	1600.16
0	213187	10150.16	1500.16
0	213188	10150.16	1400.16
0	213189	10150.16	1300.16
0	213190	10150.16	1200.16
0	213191	10150.16	1100.16
0	213192	10150.16	1000.16
0	213193	10150.16	900.16
0	213194	10150.16	800.16
0	213195	10150.16	700.16
0	213196	10150.16	600.16
0	213197	10150.16	500.16
0	213198	10150.16	400.16
0	213199	10150.16	300.16
0	213200	10150.16	200.16
0	213798	10160.16	500.16
0	213799	10160.16	400.16
0	213800	10160.16	300.16
0	213801	10160.16	1600.16
0	213802	10160.16	1500.16
0	213803	10160.16	1400.16
0	213804	10160.16	1300.16
0	213805	10160.16	1200.16
0	213806	10160.16	1100.16
0	213807	10160.16	1000.16
0	213808	10160.16	900.16
0	213809	10160.16	800.16
0	213810	10160.16	700.16
0	213811	10160.16	600.16
0	213812	10160.16	500.16
0	213813	10160.16	400.16
0	213814	10160.16	300.16
0	213815	10160.16	200.16
0	214413	10170.16	500.16
0	214414	10170.16	400.16
0	214415	10170.16	300.16
0	214416	10170.16	1600.16
0	214417	10170.16	1500.16
0	214418	10170.16	1400.16
0	214419	10170.16	1300.16
0	214420	10170.16	1200.16
0	214421	10170.16	1100.16
0	214422	10170.16	1000.16
0	214423	10170.16	900.16
0	214424	10170.16	800.16
0	214425	10170.16	700.16
0	214426	10170.16	600.16
0	214427	10170.16	500.16
0	214428	10170.16	400.16
0	214429	10170.16	300.16
0	214430	10170.16	200.16
0	215028	10180.16	500.16
0	215029	10180.16	400.16
0	215030	10180.16	300.16
0	215031	10180.16	1600.16
0	215032	10180.16	1500.16
0	215033	10180.16	1400.16
0	215034	10180.16	1300.16
0	215035	10180.16	1200.16
0	215036	10180.16	1100.16
0	215037	10180.16	1000.16
0	215038	10180.16	900.16
0	215039	10180.16	800.16
0	215040	10180.16	700.16
0	215041	10180.16	600.16
0	215042	10180.16	500.16
0	215043	10180.16	400.16
0	215044	10180.16	300.16
0	215045	10180.16	200.16
0	215643	10190.16	500.16
0	215644	10190.16	400.16
0	215645	10190.16	300.16
0	215646	10190.16	1600.16
0	215647	10190.16	1500.16
0	215648	10190.16	1400.16
0	215649	10190.16	1300.16
0	215650	10190.16	1200.16
0	215651	10190.16	1100.16
0	215652	10190.16	1000.16
0	215653	10190.16	900.16
0	215654	10190.16	800.16
0	215655	10190.16	700.16
0	215656	10190.16	600.16
0	215657	10190.16	500.16
0	215658	10190.16	400.16
0	215659	10190.16	300.16
0	215660	10190.16	200.16
0	216258	10200.16	500.16
0	216259	10200.16	400.16
0	216260	10200.16	300.16
0	216261	10200.16	1600.16
0	216262	10200.16	1500.16
0	216263	10200.16	1400.16
0	216264	10200.16	1300.16
0	216265	10200.16	1200.16
0	216266	10200.16	1100.16
0	216267	10200.16	1000.16
0	216268	10200.16	900.16
0	216269	10200.16	800.16
0	216270	10200.16	700.16
0	216271	10200.16	600.16
0	216272	10200.16	500.16
0	216273	10200.16	400.16
0	216274	10200.16	300.16
0	216275	10200.16	200.16
0	216873	10210.16	500.16
0	216874	10210.16	400.16
0	216875	10210.16	300.16
0	216876	10210.16	1600.16
0	216877	10210.16	1500.16
0	216878	10210.16	1400.16
0	216879	10210.16	1300.16
0	216880	10210.16	1200.16
0	216881	10210.16	1100.16
0	216882	10210.16	1000.16
0	216883	10210.16	900.16
0	216884	10210.16	800.16
0	216885	10210.16	700.16
0	216886	10210.16	600.16
0	216887	10210.16	500.16
0	216888	10210.16	400.16
0	216889	10210.16	300.16
0	216890	10210.16	200.16
0	217488	10220.16	500.16
0	217489	10220.16	400.16
0	217490	10220.16	300.16
0	217491	10220.16	1600.16
0	217492	10220.16	1500.16
0	217493	10220.16	1400.16
0	217494	10220.16	1300.16
0	217495	10220.16	1200.16
0	217496	10220.16	1100.16
0	217497	10220.16	1000.16
0	217498	10220.16	900.16
0	217499	10220.16	800.16
0	217500	10220.16	700.16
0	217501	10220.16	600.16
0	217502	10220.16	500.16
0	217503	10220.16	400.16
0	217504	10220.16	300.16
0	217505	10220.16	200.16
0	218103	10230.16	500.16
0	218104	10230.16	400.16
0	218105	10230.16	300.16
0	218106	10230.16	1600.16
0	218107	10230.16	1500.16
0	218108	10230.16	1400.16
0	218109	10230.16	1300.16
0	218110	10230.16	1200.16
0	218111	10230.16	1100.16
0	218112	10230.16	1000.16
0	218113	10230.16	900.16
0	218114	10230.16	800.16
0	218115	10230.16	700.16
0	218116	10230.16	600.16
0	218117	10230.16	500.16
0	218118	10230.16	400.16
0	218119	10230.16	300.16
0	218120	10230.16	200.16
0	218718	10240.16	500.16
0	218719	10240.16	400.16
0	218720	10240.16	300.16
0	218721	10240.16	1600.16
0	218722	10240.16	1500.16
0	218723	10240.16	1400.16
0	218724	10240.16	1300.16
0	218725	10240.16	1200.16
0	218726	10240.16	1100.16
0	218727	10240.16	1000.16
0	218728	10240.16	900.16
0	218729	10240.16	800.16
0	218730	10240.16	700.16
0	218731	10240.16	600.16
0	218732	10240.16	500.16
0	218733	10240.16	400.16
0	218734	10240.16	300.16
0	218735	10240.16	200.16
0	219359	10250.16	500.16
0	219360	10250.16	400.16
0	219361	10250.16	300.16
0	219362	10250.16	1700.16
0	219363	10250.16	1600.16
0	219364	10250.16	1500.16
0	219365	10250.16	1400.16
0	219366	10250.16	1300.16
0	219367	10250.16	1200.16
0	219368	10250.16	1100.16
0	219369	10250.16	1000.16
0	219370	10250.16	900.16
0	219371	10250.16	800.16
0	219372	10250.16	700.16
0	219373	10250.16	600.16
0	219374	10250.16	500.16
0	219375	10250.16	400.16
0	219376	10250.16	300.16
0	219377	10250.16	200.16
0	220008	10260.16	500.16
0	220009	10260.16	400.16
0	220010	10260.16	300.16
0	220011	10260.16	1700.16
0	220012	10260.16	1600.16
0	220013	10260.16	1500.16
0	220014	10260.16	1400.16
0	220015	10260.16	1300.16
0	220016	10260.16	1200.16
0	220017	10260.16	1100.16
0	220018	10260.16	1000.16
0	220019	10260.16	900.16
0	220020	10260.16	800.16
0	220021	10260.16	700.16
0	220022	10260.16	600.16
0	220023	10260.16	500.16
0	220024	10260.16	400.16
0	220025	10260.16	300.16
0	220026	10260.16	200.16
0	220657	10270.16	500.16
0	220658	10270.16	400.16
0	220659	10270.16	300.16
0	220660	10270.16	1700.16
0	220661	10270.16	1600.16
0	220662	10270.16	1500.16
0	220663	10270.16	1400.16
0	220664	10270.16	1300.16
0	220665	10270.16	1200.16
0	220666	10270.16	1100.16
0	220667	10270.16	1000.16
0	220668	10270.16	900.16
0	220669	10270.16	800.16
0	220670	10270.16	700.16
0	220671	10270.16	600.16
0	220672	10270.16	500.16
0	220673	10270.16	400.16
0	220674	10270.16	300.16
0	220675	10270.16	200.16
0	221306	10280.16	500.16
0	221307	10280.16	400.16
0	221308	10280.16	300.16
0	221309	10280.16	1700.16
0	221310	10280.16	1600.16
0	221311	10280.16	1500.16
0	221312	10280.16	1400.16
0	221313	10280.16	1300.16
0	221314	10280.16	1200.16
0	221315	10280.16	1100.16
0	221316	10280.16	1000.16
0	221317	10280.16	900.16
0	221318	10280.16	800.16
0	221319	10280.16	700.16
0	221320	10280.16	600.16
0	221321	10280.16	500.16
0	221322	10280.16	400.16
0	221323	10280.16	300.16
0	221324	10280.16	200.16
0	221955	10290.16	500.16
0	221956	10290.16	400.16
0	221957	10290.16	300.16
0	221958	10290.16	1700.16
0	221959	10290.16	1600.16
0	221960	10290.16	1500.16
0	221961	10290.16	1400.16
0	221962	10290.16	1300.16
0	221963	10290.16	1200.16
0	221964	10290.16	1100.16
0	221965	10290.16	1000.16
0	221966	10290.16	900.16
0	221967	10290.16	800.16
0	221968	10290.16	700.16
0	221969	10290.16	600.16
0	221970	10290.16	500.16
0	221971	10290.16	400.16
0	221972	10290.16	300.16
0	221973	10290.16	200.16
0	222604	10300.16	500.16
0	222605	10300.16	400.16
0	222606	10300.16	300.16
0	222607	10300.16	1700.16
0	222608	10300.16	1600.16
0	222609	10300.16	1500.16
0	222610	10300.16	1400.16
0	222611	10300.16	1300.16
0	222612	10300.16	1200.16
0	222613	10300.16	1100.16
0	222614	10300.16	1000.16
0	222615	10300.16	900.16
0	222616	10300.16	800.16
0	222617	10300.16	700.16
0	222618	10300.16	600.16
0	222619	10300.16	500.16
0	222620	10300.16	400.16
0	222621	10300.16	300.16
0	222622	10300.16	200.16
0	223253	10310.16	500.16
0	223254	10310.16	400.16
0	223255	10310.16	300.16
0	223256	10310.16	1700.16
0	223257	10310.16	1600.16
0	223258	10310.16	1500.16
0	223259	10310.16	1400.16
0	223260	10310.16	1300.16
0	223261	10310.16	1200.16
0	223262	10310.16	1100.16
0	223263	10310.16	1000.16
0	223264	10310.16	900.16
0	223265	10310.16	800.16
0	223266	10310.16	700.16
0	223267	10310.16	600.16
0	223268	10310.16	500.16
0	223269	10310.16	400.16
0	223270	10310.16	300.16
0	223271	10310.16	200.16
0	223902	10320.16	500.16
0	223903	10320.16	400.16
0	223904	10320.16	300.16
0	223905	10320.16	1700.16
0	223906	10320.16	1600.16
0	223907	10320.16	1500.16
0	223908	10320.16	1400.16
0	223909	10320.16	1300.16
0	223910	10320.16	1200.16
0	223911	10320.16	1100.16
0	223912	10320.16	1000.16
0	223913	10320.16	900.16
0	223914	10320.16	800.16
0	223915	10320.16	700.16
0	223916	10320.16	600.16
0	223917	10320.16	500.16
0	223918	10320.16	400.16
0	223919	10320.16	300.16
0	223920	10320.16	200.16
0	224551	10330.16	500.16
0	224552	10330.16	400.16
0	224553	10330.16	300.16
0	224554	10330.16	1700.16
0	224555	10330.16	1600.16
0	224556	10330.16	1500.16
0	224557	10330.16	1400.16
0	224558	10330.16	1300.16
0	224559	10330.16	1200.16
0	224560	10330.16	1100.16
0	224561	10330.16	1000.16
0	224562	10330.16	900.16
0	224563	10330.16	800.16
0	224564	10330.16	700.16
0	224565	10330.16	600.16
0	224566	10330.16	500.16
0	224567	10330.16	400.16
0	224568	10330.16	300.16
0	224569	10330.16	200.16
0	225200	10340.16	500.16
0	225201	10340.16	400.16
0	225202	10340.16	300.16
0	225203	10340.16	1700.16
0	225204	10340.16	1600.16
0	225205	10340.16	1500.16
0	225206	10340.16	1400.16
0	225207	10340.16	1300.16
0	225208	10340.16	1200.16
0	225209	10340.16	1100.16
0	225210	10340.16	1000.16
0	225211	10340.16	900.16
0	225212	10340.16	800.16
0	225213	10340.16	700.16
0	225214	10340.16	600.16
0	225215	10340.16	500.16
0	225216	10340.16	400.16
0	225217	10340.16	300.16
0	225218	10340.16	200.16
0	225875	10350.16	500.16
0	225876	10350.16	400.16
0	225877	10350.16	300.16
0	225878	10350.16	1800.16
0	225879	10350.16	1700.16
0	225880	10350.16	1600.16
0	225881	10350.16	1500.16
0	225882	10350.16	1400.16
0	225883	10350.16	1300.16
0	225884	10350.16	1200.16
0	225885	10350.16	1100.16
0	225886	10350.16	1000.16
0	225887	10350.16	900.16
0	225888	10350.16	800.16
0	225889	10350.16	700.16
0	225890	10350.16	600.16
0	225891	10350.16	500.16
0	225892	10350.16	400.16
0	225893	10350.16	300.16
0	225894	10350.16	200.16
0	226558	10360.16	500.16
0	226559	10360.16	400.16
0	226560	10360.16	300.16
0	226561	10360.16	1800.16
0	226562	10360.16	1700.16
0	226563	10360.16	1600.16
0	226564	10360.16	1500.16
0	226565	10360.16	1400.16
0	226566	10360.16	1300.16
0	226567	10360.16	1200.16
0	226568	10360.16	1100.16
0	226569	10360.16	1000.16
0	226570	10360.16	900.16
0	226571	10360.16	800.16
0	226572	10360.16	700.16
0	226573	10360.16	600.16
0	226574	10360.16	500.16
0	226575	10360.16	400.16
0	226576	10360.16	300.16
0	226577	10360.16	200.16
0	227241	10370.16	500.16
0	227242	10370.16	400.16
0	227243	10370.16	300.16
0	227244	10370.16	1800.16
0	227245	10370.16	1700.16
0	227246	10370.16	1600.16
0	227247	10370.16	1500.16
0	227248	10370.16	1400.16
0	227249	10370.16	1300.16
0	227250	10370.16	1200.16
0	227251	10370.16	1100.16
0	227252	10370.16	1000.16
0	227253	10370.16	900.16
0	227254	10370.16	800.16
0	227255	10370.16	700.16
0	227256	10370.16	600.16
0	227257	10370.16	500.16
0	227258	10370.16	400.16
0	227259	10370.16	300.16
0	227260	10370.16	200.16
0	227924	10380.16	500.16
0	227925	10380.16	400.16
0	227926	10380.16	300.16
0	227927	10380.16	1800.16
0	227928	10380.16	1700.16
0	227929	10380.16	1600.16
0	227930	10380.16	1500.16
0	227931	10380.16	1400.16
0	227932	10380.16	1300.16
0	227933	10380.16	1200.16
0	227934	10380.16	1100.16
0	227935	10380.16	1000.16
0	227936	10380.16	900.16
0	227937	10380.16	800.16
0	227938	10380.16	700.16
0	227939	10380.16	600.16
0	227940	10380.16	500.16
0	227941	10380.16	400.16
0	227942	10380.16	300.16
0	227943	10380.16	200.16
0	228607	10390.16	500.16
0	228608	10390.16	400.16
0	228609	10390.16	300.16
0	228610	10390.16	1800.16
0	228611	10390.16	1700.16
0	228612	10390.16	1600.16
0	228613	10390.16	1500.16
0	228614	10390.16	1400.16
0	228615	10390.16	1300.16
0	228616	10390.16	1200.16
0	228617	10390.16	1100.16
0	228618	10390.16	1000.16
0	228619	10390.16	900.16
0	228620	10390.16	800.16
0	228621	10390.16	700.16
0	228622	10390.16	600.16
0	228623	10390.16	500.16
0	228624	10390.16	400.16
0	228625	10390.16	300.16
0	228626	10390.16	200.16
0	229290	10400.16	500.16
0	229291	10400.16	400.16
0	229292	10400.16	300.16
0	229293	10400.16	1800.16
0	229294	10400.16	1700.16
0	229295	10400.16	1600.16
0	229296	10400.16	1500.16
0	229297	10400.16	1400.16
0	229298	10400.16	1300.16
0	229299	10400.16	1200.16
0	229300	10400.16	1100.16
0	229301	10400.16	1000.16
0	229302	10400.16	900.16
0	229303	10400.16	800.16
0	229304	10400.16	700.16
0	229305	10400.16	600.16
0	229306	10400.16	500.16
0	229307	10400.16	400.16
0	229308	10400.16	300.16
0	229309	10400.16	200.16
0	229973	10410.16	500.16
0	229974	10410.16	400.16
0	229975	10410.16	300.16
0	229976	10410.16	1800.16
0	229977	10410.16	1700.16
0	229978	10410.16	1600.16
0	229979	10410.16	1500.16
0	229980	10410.16	1400.16
0	229981	10410.16	1300.16
0	229982	10410.16	1200.16
0	229983	10410.16	1100.16
0	229984	10410.16	1000.16
0	229985	10410.16	900.16
0	229986	10410.16	800.16
0	229987	10410.16	700.16
0	229988	10410.16	600.16
0	229989	10410.16	500.16
0	229990	10410.16	400.16
0	229991	10410.16	300.16
0	229992	10410.16	200.16
0	230656	10420.16	500.16
0	230657	10420.16	400.16
0	230658	10420.16	300.16
0	230659	10420.16	1800.16
0	230660	10420.16	1700.16
0	230661	10420.16	1600.16
0	230662	10420.16	1500.16
0	230663	10420.16	1400.16
0	230664	10420.16	1300.16
0	230665	10420.16	1200.16
0	230666	10420.16	1100.16
0	230667	10420.16	1000.16
0	230668	10420.16	900.16
0	230669	10420.16	800.16
0	230670	10420.16	700.16
0	230671	10420.16	600.16
0	230672	10420.16	500.16
0	230673	10420.16	400.16
0	230674	10420.16	300.16
0	230675	10420.16	200.16
0	231339	10430.16	500.16
0	231340	10430.16	400.16
0	231341	10430.16	300.16
0	231342	10430.16	1800.16
0	231343	10430.16	1700.16
0	231344	10430.16	1600.16
0	231345	10430.16	1500.16
0	231346	10430.16	1400.16
0	231347	10430.16	1300.16
0	231348	10430.16	1200.16
0	231349	10430.16	1100.16
0	231350	10430.16	1000.16
0	231351	10430.16	900.16
0	231352	10430.16	800.16
0	231353	10430.16	700.16
0	231354	10430.16	600.16
0	231355	10430.16	500.16
0	231356	10430.16	400.16
0	231357	10430.16	300.16
0	231358	10430.16	200.16
0	232022	10440.16	500.16
0	232023	10440.16	400.16
0	232024	10440.16	300.16
0	232025	10440.16	1800.16
0	232026	10440.16	1700.16
0	232027	10440.16	1600.16
0	232028	10440.16	1500.16
0	232029	10440.16	1400.16
0	232030	10440.16	1300.16
0	232031	10440.16	1200.16
0	232032	10440.16	1100.16
0	232033	10440.16	1000.16
0	232034	10440.16	900.16
0	232035	10440.16	800.16
0	232036	10440.16	700.16
0	232037	10440.16	600.16
0	232038	10440.16	500.16
0	232039	10440.16	400.16
0	232040	10440.16	300.16
0	232041	10440.16	200.16
0	232731	10450.16	500.16
0	232732	10450.16	400.16
0	232733	10450.16	300.16
0	232734	10450.16	1900.16
0	232735	10450.16	1800.16
0	232736	10450.16	1700.16
0	232737	10450.16	1600.16
0	232738	10450.16	1500.16
0	232739	10450.16	1400.16
0	232740	10450.16	1300.16
0	232741	10450.16	1200.16
0	232742	10450.16	1100.16
0	232743	10450.16	1000.16
0	232744	10450.16	900.16
0	232745	10450.16	800.16
0	232746	10450.16	700.16
0	232747	10450.16	600.16
0	232748	10450.16	500.16
0	232749	10450.16	400.16
0	232750	10450.16	300.16
0	232751	10450.16	200.16
0	233448	10460.16	500.16
0	233449	10460.16	400.16
0	233450	10460.16	300.16
0	233451	10460.16	1900.16
0	233452	10460.16	1800.16
0	233453	10460.16	1700.16
0	233454	10460.16	1600.16
0	233455	10460.16	1500.16
0	233456	10460.16	1400.16
0	233457	10460.16	1300.16
0	233458	10460.16	1200.16
0	233459	10460.16	1100.16
0	233460	10460.16	1000.16
0	233461	10460.16	900.16
0	233462	10460.16	800.16
0	233463	10460.16	700.16
0	233464	10460.16	600.16
0	233465	10460.16	500.16
0	233466	10460.16	400.16
0	233467	10460.16	300.16
0	233468	10460.16	200.16
0	234165	10470.16	500.16
0	234166	10470.16	400.16
0	234167	10470.16	300.16
0	234168	10470.16	1900.16
0	234169	10470.16	1800.16
0	234170	10470.16	1700.16
0	234171	10470.16	1600.16
0	234172	10470.16	1500.16
0	234173	10470.16	1400.16
0	234174	10470.16	1300.16
0	234175	10470.16	1200.16
0	234176	10470.16	1100.16
0	234177	10470.16	1000.16
0	234178	10470.16	900.16
0	234179	10470.16	800.16
0	234180	10470.16	700.16
0	234181	10470.16	600.16
0	234182	10470.16	500.16
0	234183	10470.16	400.16
0	234184	10470.16	300.16
0	234185	10470.16	200.16
0	234882	10480.16	500.16
0	234883	10480.16	400.16
0	234884	10480.16	300.16
0	234885	10480.16	1900.16
0	234886	10480.16	1800.16
0	234887	10480.16	1700.16
0	234888	10480.16	1600.16
0	234889	10480.16	1500.16
0	234890	10480.16	1400.16
0	234891	10480.16	1300.16
0	234892	10480.16	1200.16
0	234893	10480.16	1100.16
0	234894	10480.16	1000.16
0	234895	10480.16	900.16
0	234896	10480.16	800.16
0	234897	10480.16	700.16
0	234898	10480.16	600.16
0	234899	10480.16	500.16
0	234900	10480.16	400.16
0	234901	10480.16	300.16
0	234902	10480.16	200.16

