version 2
run General-0-20250129-16:29:09-10416
attr configname General
attr datetime 20250129-16:29:09
attr experiment General
attr inifile shaw_false.ini
attr iterationvars ""
attr iterationvarsf ""
attr measurement ""
attr network src.dtnsim
attr processid 10416
attr repetition 0
attr replication #0
attr resultdir results
attr runnumber 0
attr seedset 0
param dtnsim.central.contactsFile "\"contactPlan/Contacts.txt\""
param dtnsim.central.contactsFile_A "\"contactPlan/Contacts.txt\""
param dtnsim.central.contactsFile_B "\"contactPlan/Contacts.txt\""
param dtnsim.central.contactIdsToDelete "\"8 9 10 12 16 28 32 36 40 41 43 47 49 50 51 52 59 62 75 77 85 89 90 96 101 102 107 110 119 122 130 152 153 154 155 159 167 173 176 178 180 185 187 190 193 196 199 201 202 204 207 209 214 226 231 236 237 238 241 245 247 249 253 255 267 278 279 283 286 288 292 294 295 303 304 310 311 319 325 326 331 332 335 342 345 349 351 360 362 364 368 370 373 377 387 389 394 396 398 399\""
param dtnsim.central.contactIdsToDelete_from_celestialA "\"9 10 32 40 41 49 52 77 85 89 96 101 110 119 130 152 154 159 173 176 178 180 187 193 199 201 204 207 214 226 231 241 245 247 278 283 286 288 304 325 332 335 345 349 351 362 368 370 373 387 389 399\""
param dtnsim.central.contactIdsToDelete_from_celestialB "\"8 12 16 28 36 43 47 50 51 59 62 75 90 102 107 122 153 155 167 185 190 196 202 209 236 237 238 249 253 255 267 279 292 294 295 303 310 311 319 326 331 342 360 364 377 394 396 398\""
param dtnsim.central.celestialA_nodes "\"1 2 3\""
param dtnsim.central.celestialB_nodes "\"4 5 6\""
param dtnsim.central.locallyfaultsAware false
param dtnsim.central.mode_two_celestial true
param dtnsim.central.faultsAware false
param dtnsim.nodesNumber 6
param dtnsim.node[1].icon "\"receiverdish\""
param dtnsim.node[2..5].icon "\"satellite\""
param dtnsim.node[6].icon "\"receiverdish\""
param dtnsim.node[*].dtn.routing "\"cgrModel350\""
param dtnsim.node[*].dtn.routingType "\"routeListType:allPaths-firstEnding,volumeAware:allContacts,extensionBlock:on,contactPlan:global\""
param dtnsim.node[1].app.enable true
param dtnsim.node[1].app.custodyTransfer true
param dtnsim.node[1].app.bundlesNumber "\"2000\""
param dtnsim.node[1].app.start "\"0\""
param dtnsim.node[1].app.destinationEid "\"6\""
param dtnsim.node[1].app.size "\"1500\""
param dtnsim.node[1].app.interval 10
param dtnsim.node[*].app.custodyTimeout 100000000000000
param dtnsim.node[1].app.ttl 10000

vector 0 dtnsim.node[6].app appBundleReceivedDelayvec:vector ETV
attr interpolationmode none
attr source appBundleReceivedDelay
attr title "appBundleReceivedDelayvec, vector"
0	4026	4250.19	750.19
0	4081	4260.19	750.19
0	4140	4270.19	750.19
0	4199	4280.19	750.19
0	4858	4290.19	1340.19
0	4859	4290.19	1330.19
0	4860	4290.19	1320.19
0	4861	4290.19	1310.19
0	4862	4290.19	1300.19
0	4863	4290.19	1290.19
0	4864	4290.19	1280.19
0	4865	4290.19	1270.19
0	4866	4290.19	1260.19
0	4867	4290.19	1250.19
0	4868	4290.19	1240.19
0	4869	4290.19	1230.19
0	4870	4290.19	1220.19
0	4871	4290.19	1210.19
0	4872	4290.19	1200.19
0	4873	4290.19	1190.19
0	4874	4290.19	1180.19
0	4875	4290.19	1170.19
0	4876	4290.19	1160.19
0	4877	4290.19	1150.19
0	4878	4290.19	1140.19
0	4879	4290.19	1130.19
0	4880	4290.19	1120.19
0	4881	4290.19	1110.19
0	4882	4290.19	1100.19
0	4883	4290.19	1090.19
0	4884	4290.19	1080.19
0	4885	4290.19	1070.19
0	4886	4290.19	1060.19
0	4887	4290.19	1050.19
0	4888	4290.19	1040.19
0	4889	4290.19	1030.19
0	4890	4290.19	1020.19
0	4891	4290.19	1010.19
0	4892	4290.19	1000.19
0	4893	4290.19	990.19
0	4894	4290.19	980.19
0	4895	4290.19	970.19
0	4896	4290.19	960.19
0	4897	4290.19	950.19
0	4898	4290.19	940.19
0	4899	4290.19	930.19
0	4900	4290.19	920.19
0	4901	4290.19	910.19
0	4902	4290.19	900.19
0	4903	4290.19	890.19
0	4904	4290.19	880.19
0	4905	4290.19	870.19
0	4906	4290.19	860.19
0	4907	4290.19	850.19
0	4908	4290.19	750.19
0	5233	4300.19	850.19
0	5234	4300.19	750.19
0	6216	4310.19	850.19
0	6217	4310.19	750.19
0	6721	4350.19	850.19
0	6772	4360.19	850.19
0	6827	4370.19	850.19
0	6882	4380.19	850.19
0	7537	4390.19	1440.19
0	7538	4390.19	1430.19
0	7539	4390.19	1420.19
0	7540	4390.19	1410.19
0	7541	4390.19	1400.19
0	7542	4390.19	1390.19
0	7543	4390.19	1380.19
0	7544	4390.19	1370.19
0	7545	4390.19	1360.19
0	7546	4390.19	1350.19
0	7547	4390.19	1340.19
0	7548	4390.19	1330.19
0	7549	4390.19	1320.19
0	7550	4390.19	1310.19
0	7551	4390.19	1300.19
0	7552	4390.19	1290.19
0	7553	4390.19	1280.19
0	7554	4390.19	1270.19
0	7555	4390.19	1260.19
0	7556	4390.19	1250.19
0	7557	4390.19	1240.19
0	7558	4390.19	1230.19
0	7559	4390.19	1220.19
0	7560	4390.19	1210.19
0	7561	4390.19	1200.19
0	7562	4390.19	1190.19
0	7563	4390.19	1180.19
0	7564	4390.19	1170.19
0	7565	4390.19	1160.19
0	7566	4390.19	1150.19
0	7567	4390.19	1140.19
0	7568	4390.19	1130.19
0	7569	4390.19	1120.19
0	7570	4390.19	1110.19
0	7571	4390.19	1100.19
0	7572	4390.19	1090.19
0	7573	4390.19	1080.19
0	7574	4390.19	1070.19
0	7575	4390.19	1060.19
0	7576	4390.19	1050.19
0	7577	4390.19	1040.19
0	7578	4390.19	1030.19
0	7579	4390.19	1020.19
0	7580	4390.19	1010.19
0	7581	4390.19	1000.19
0	7582	4390.19	990.19
0	7583	4390.19	980.19
0	7584	4390.19	970.19
0	7585	4390.19	960.19
0	7586	4390.19	950.19
0	7587	4390.19	850.19
0	7904	4400.19	950.19
0	7905	4400.19	850.19
0	7977	4410.19	950.19
0	7978	4410.19	850.19
0	8619	4450.19	950.19
0	8677	4460.19	950.19
0	8737	4470.19	950.19
0	8797	4480.19	950.19
0	9456	4490.19	1540.19
0	9457	4490.19	1530.19
0	9458	4490.19	1520.19
0	9459	4490.19	1510.19
0	9460	4490.19	1500.19
0	9461	4490.19	1490.19
0	9462	4490.19	1480.19
0	9463	4490.19	1470.19
0	9464	4490.19	1460.19
0	9465	4490.19	1450.19
0	9466	4490.19	1440.19
0	9467	4490.19	1430.19
0	9468	4490.19	1420.19
0	9469	4490.19	1410.19
0	9470	4490.19	1400.19
0	9471	4490.19	1390.19
0	9472	4490.19	1380.19
0	9473	4490.19	1370.19
0	9474	4490.19	1360.19
0	9475	4490.19	1350.19
0	9476	4490.19	1340.19
0	9477	4490.19	1330.19
0	9478	4490.19	1320.19
0	9479	4490.19	1310.19
0	9480	4490.19	1300.19
0	9481	4490.19	1290.19
0	9482	4490.19	1280.19
0	9483	4490.19	1270.19
0	9484	4490.19	1260.19
0	9485	4490.19	1250.19
0	9486	4490.19	1240.19
0	9487	4490.19	1230.19
0	9488	4490.19	1220.19
0	9489	4490.19	1210.19
0	9490	4490.19	1200.19
0	9491	4490.19	1190.19
0	9492	4490.19	1180.19
0	9493	4490.19	1170.19
0	9494	4490.19	1160.19
0	9495	4490.19	1150.19
0	9496	4490.19	1140.19
0	9497	4490.19	1130.19
0	9498	4490.19	1120.19
0	9499	4490.19	1110.19
0	9500	4490.19	1100.19
0	9501	4490.19	1090.19
0	9502	4490.19	1080.19
0	9503	4490.19	1070.19
0	9504	4490.19	1060.19
0	9505	4490.19	1050.19
0	9506	4490.19	950.19
0	9827	4500.19	1050.19
0	9828	4500.19	950.19
0	9904	4510.19	1050.19
0	9905	4510.19	950.19
0	10560	4550.19	1050.19
0	10628	4560.19	1050.19
0	10698	4570.19	1050.19
0	10768	4580.19	1050.19
0	11437	4590.19	1640.19
0	11438	4590.19	1630.19
0	11439	4590.19	1620.19
0	11440	4590.19	1610.19
0	11441	4590.19	1600.19
0	11442	4590.19	1590.19
0	11443	4590.19	1580.19
0	11444	4590.19	1570.19
0	11445	4590.19	1560.19
0	11446	4590.19	1550.19
0	11447	4590.19	1540.19
0	11448	4590.19	1530.19
0	11449	4590.19	1520.19
0	11450	4590.19	1510.19
0	11451	4590.19	1500.19
0	11452	4590.19	1490.19
0	11453	4590.19	1480.19
0	11454	4590.19	1470.19
0	11455	4590.19	1460.19
0	11456	4590.19	1450.19
0	11457	4590.19	1440.19
0	11458	4590.19	1430.19
0	11459	4590.19	1420.19
0	11460	4590.19	1410.19
0	11461	4590.19	1400.19
0	11462	4590.19	1390.19
0	11463	4590.19	1380.19
0	11464	4590.19	1370.19
0	11465	4590.19	1360.19
0	11466	4590.19	1350.19
0	11467	4590.19	1340.19
0	11468	4590.19	1330.19
0	11469	4590.19	1320.19
0	11470	4590.19	1310.19
0	11471	4590.19	1300.19
0	11472	4590.19	1290.19
0	11473	4590.19	1280.19
0	11474	4590.19	1270.19
0	11475	4590.19	1260.19
0	11476	4590.19	1250.19
0	11477	4590.19	1240.19
0	11478	4590.19	1230.19
0	11479	4590.19	1220.19
0	11480	4590.19	1210.19
0	11481	4590.19	1200.19
0	11482	4590.19	1190.19
0	11483	4590.19	1180.19
0	11484	4590.19	1170.19
0	11485	4590.19	1160.19
0	11486	4590.19	1150.19
0	11487	4590.19	1050.19
0	12068	4600.19	1150.19
0	12069	4600.19	1050.19
0	12160	4610.19	1150.19
0	12161	4610.19	1050.19
0	12848	4650.19	1150.19
0	12918	4660.19	1150.19
0	12992	4670.19	1150.19
0	13066	4680.19	1150.19
0	13740	4690.19	1740.19
0	13741	4690.19	1730.19
0	13742	4690.19	1720.19
0	13743	4690.19	1710.19
0	13744	4690.19	1700.19
0	13745	4690.19	1690.19
0	13746	4690.19	1680.19
0	13747	4690.19	1670.19
0	13748	4690.19	1660.19
0	13749	4690.19	1650.19
0	13750	4690.19	1640.19
0	13751	4690.19	1630.19
0	13752	4690.19	1620.19
0	13753	4690.19	1610.19
0	13754	4690.19	1600.19
0	13755	4690.19	1590.19
0	13756	4690.19	1580.19
0	13757	4690.19	1570.19
0	13758	4690.19	1560.19
0	13759	4690.19	1550.19
0	13760	4690.19	1540.19
0	13761	4690.19	1530.19
0	13762	4690.19	1520.19
0	13763	4690.19	1510.19
0	13764	4690.19	1500.19
0	13765	4690.19	1490.19
0	13766	4690.19	1480.19
0	13767	4690.19	1470.19
0	13768	4690.19	1460.19
0	13769	4690.19	1450.19
0	13770	4690.19	1440.19
0	13771	4690.19	1430.19
0	13772	4690.19	1420.19
0	13773	4690.19	1410.19
0	13774	4690.19	1400.19
0	13775	4690.19	1390.19
0	13776	4690.19	1380.19
0	13777	4690.19	1370.19
0	13778	4690.19	1360.19
0	13779	4690.19	1350.19
0	13780	4690.19	1340.19
0	13781	4690.19	1330.19
0	13782	4690.19	1320.19
0	13783	4690.19	1310.19
0	13784	4690.19	1300.19
0	13785	4690.19	1290.19
0	13786	4690.19	1280.19
0	13787	4690.19	1270.19
0	13788	4690.19	1260.19
0	13789	4690.19	1250.19
0	13790	4690.19	1150.19
0	14376	4700.19	1250.19
0	14377	4700.19	1150.19
0	14475	4710.19	1250.19
0	14476	4710.19	1150.19
0	15178	4750.19	1250.19
0	15253	4760.19	1250.19
0	15332	4770.19	1250.19
0	15411	4780.19	1250.19
0	16090	4790.19	1840.19
0	16091	4790.19	1830.19
0	16092	4790.19	1820.19
0	16093	4790.19	1810.19
0	16094	4790.19	1800.19
0	16095	4790.19	1790.19
0	16096	4790.19	1780.19
0	16097	4790.19	1770.19
0	16098	4790.19	1760.19
0	16099	4790.19	1750.19
0	16100	4790.19	1740.19
0	16101	4790.19	1730.19
0	16102	4790.19	1720.19
0	16103	4790.19	1710.19
0	16104	4790.19	1700.19
0	16105	4790.19	1690.19
0	16106	4790.19	1680.19
0	16107	4790.19	1670.19
0	16108	4790.19	1660.19
0	16109	4790.19	1650.19
0	16110	4790.19	1640.19
0	16111	4790.19	1630.19
0	16112	4790.19	1620.19
0	16113	4790.19	1610.19
0	16114	4790.19	1600.19
0	16115	4790.19	1590.19
0	16116	4790.19	1580.19
0	16117	4790.19	1570.19
0	16118	4790.19	1560.19
0	16119	4790.19	1550.19
0	16120	4790.19	1540.19
0	16121	4790.19	1530.19
0	16122	4790.19	1520.19
0	16123	4790.19	1510.19
0	16124	4790.19	1500.19
0	16125	4790.19	1490.19
0	16126	4790.19	1480.19
0	16127	4790.19	1470.19
0	16128	4790.19	1460.19
0	16129	4790.19	1450.19
0	16130	4790.19	1440.19
0	16131	4790.19	1430.19
0	16132	4790.19	1420.19
0	16133	4790.19	1410.19
0	16134	4790.19	1400.19
0	16135	4790.19	1390.19
0	16136	4790.19	1380.19
0	16137	4790.19	1370.19
0	16138	4790.19	1360.19
0	16139	4790.19	1350.19
0	16140	4790.19	1250.19
0	16731	4800.19	1350.19
0	16732	4800.19	1250.19
0	16833	4810.19	1350.19
0	16834	4810.19	1250.19
0	17560	4850.19	1350.19
0	17642	4860.19	1350.19
0	17728	4870.19	1350.19
0	17814	4880.19	1350.19
0	18500	4890.19	1940.19
0	18501	4890.19	1930.19
0	18502	4890.19	1920.19
0	18503	4890.19	1910.19
0	18504	4890.19	1900.19
0	18505	4890.19	1890.19
0	18506	4890.19	1880.19
0	18507	4890.19	1870.19
0	18508	4890.19	1860.19
0	18509	4890.19	1850.19
0	18510	4890.19	1840.19
0	18511	4890.19	1830.19
0	18512	4890.19	1820.19
0	18513	4890.19	1810.19
0	18514	4890.19	1800.19
0	18515	4890.19	1790.19
0	18516	4890.19	1780.19
0	18517	4890.19	1770.19
0	18518	4890.19	1760.19
0	18519	4890.19	1750.19
0	18520	4890.19	1740.19
0	18521	4890.19	1730.19
0	18522	4890.19	1720.19
0	18523	4890.19	1710.19
0	18524	4890.19	1700.19
0	18525	4890.19	1690.19
0	18526	4890.19	1680.19
0	18527	4890.19	1670.19
0	18528	4890.19	1660.19
0	18529	4890.19	1650.19
0	18530	4890.19	1640.19
0	18531	4890.19	1630.19
0	18532	4890.19	1620.19
0	18533	4890.19	1610.19
0	18534	4890.19	1600.19
0	18535	4890.19	1590.19
0	18536	4890.19	1580.19
0	18537	4890.19	1570.19
0	18538	4890.19	1560.19
0	18539	4890.19	1550.19
0	18540	4890.19	1540.19
0	18541	4890.19	1530.19
0	18542	4890.19	1520.19
0	18543	4890.19	1510.19
0	18544	4890.19	1500.19
0	18545	4890.19	1490.19
0	18546	4890.19	1480.19
0	18547	4890.19	1470.19
0	18548	4890.19	1460.19
0	18549	4890.19	1450.19
0	18550	4890.19	1350.19
0	19148	4900.19	1450.19
0	19149	4900.19	1350.19
0	19257	4910.19	1450.19
0	19258	4910.19	1350.19
0	19307	4920.09	750.09
0	19876	4930.09	750.09
0	19957	4940.09	750.09
0	20039	4950.09	750.09
0	20112	4950.19	1450.19
0	20154	4960.09	750.09
0	20227	4960.19	1450.19
0	20269	4970.09	750.09
0	20346	4970.19	1450.19
0	20388	4980.09	750.09
0	20465	4980.19	1450.19
0	20557	4990.09	750.09
0	21184	4990.19	2040.19
0	21185	4990.19	2030.19
0	21186	4990.19	2020.19
0	21187	4990.19	2010.19
0	21188	4990.19	2000.19
0	21189	4990.19	1990.19
0	21190	4990.19	1980.19
0	21191	4990.19	1970.19
0	21192	4990.19	1960.19
0	21193	4990.19	1950.19
0	21194	4990.19	1940.19
0	21195	4990.19	1930.19
0	21196	4990.19	1920.19
0	21197	4990.19	1910.19
0	21198	4990.19	1900.19
0	21199	4990.19	1890.19
0	21200	4990.19	1880.19
0	21201	4990.19	1870.19
0	21202	4990.19	1860.19
0	21203	4990.19	1850.19
0	21204	4990.19	1840.19
0	21205	4990.19	1830.19
0	21206	4990.19	1820.19
0	21207	4990.19	1810.19
0	21208	4990.19	1800.19
0	21209	4990.19	1790.19
0	21210	4990.19	1780.19
0	21211	4990.19	1770.19
0	21212	4990.19	1760.19
0	21213	4990.19	1750.19
0	21214	4990.19	1740.19
0	21215	4990.19	1730.19
0	21216	4990.19	1720.19
0	21217	4990.19	1710.19
0	21218	4990.19	1700.19
0	21219	4990.19	1690.19
0	21220	4990.19	1680.19
0	21221	4990.19	1670.19
0	21222	4990.19	1660.19
0	21223	4990.19	1650.19
0	21224	4990.19	1640.19
0	21225	4990.19	1630.19
0	21226	4990.19	1620.19
0	21227	4990.19	1610.19
0	21228	4990.19	1600.19
0	21229	4990.19	1590.19
0	21230	4990.19	1580.19
0	21231	4990.19	1570.19
0	21232	4990.19	1560.19
0	21233	4990.19	1550.19
0	21234	4990.19	1450.19
0	21777	5000.09	750.09
0	21865	5000.19	1550.19
0	21866	5000.19	1450.19
0	21919	5010.09	750.09
0	22007	5010.19	1550.19
0	22008	5010.19	1450.19
0	22070	5020.09	850.09
0	22071	5020.09	750.09
0	22665	5030.09	850.09
0	22666	5030.09	750.09
0	22772	5040.09	850.09
0	22773	5040.09	750.09
0	22870	5050.09	850.09
0	22960	5050.19	1550.19
0	22974	5050.22	750.22
0	23027	5060.09	850.09
0	23345	5060.19	1550.19
0	23359	5060.22	750.22
0	24632	5070.09	1600.09
0	24633	5070.09	1500.09
0	24634	5070.09	1590.09
0	24635	5070.09	1490.09
0	24636	5070.09	1580.09
0	24637	5070.09	1480.09
0	24638	5070.09	1570.09
0	24639	5070.09	1470.09
0	24640	5070.09	1560.09
0	24641	5070.09	1460.09
0	24642	5070.09	1550.09
0	24643	5070.09	1450.09
0	24644	5070.09	1540.09
0	24645	5070.09	1440.09
0	24646	5070.09	2120.09
0	24647	5070.09	2110.09
0	24648	5070.09	2100.09
0	24649	5070.09	2090.09
0	24650	5070.09	2080.09
0	24651	5070.09	2070.09
0	24652	5070.09	2060.09
0	24653	5070.09	2050.09
0	24654	5070.09	2040.09
0	24655	5070.09	2030.09
0	24656	5070.09	2020.09
0	24657	5070.09	2010.09
0	24658	5070.09	2000.09
0	24659	5070.09	1990.09
0	24660	5070.09	1980.09
0	24661	5070.09	1970.09
0	24662	5070.09	1960.09
0	24663	5070.09	1950.09
0	24664	5070.09	1940.09
0	24665	5070.09	1930.09
0	24666	5070.09	1920.09
0	24667	5070.09	1910.09
0	24668	5070.09	1900.09
0	24669	5070.09	1890.09
0	24670	5070.09	1880.09
0	24671	5070.09	1870.09
0	24672	5070.09	1860.09
0	24673	5070.09	1850.09
0	24674	5070.09	1840.09
0	24675	5070.09	1830.09
0	24676	5070.09	1820.09
0	24677	5070.09	1810.09
0	24678	5070.09	1800.09
0	24679	5070.09	1790.09
0	24680	5070.09	1780.09
0	24681	5070.09	1770.09
0	24682	5070.09	1760.09
0	24683	5070.09	1750.09
0	24684	5070.09	1740.09
0	24685	5070.09	1730.09
0	24686	5070.09	1720.09
0	24687	5070.09	1710.09
0	24688	5070.09	1700.09
0	24689	5070.09	1690.09
0	24690	5070.09	1680.09
0	24691	5070.09	1670.09
0	24692	5070.09	1660.09
0	24693	5070.09	1650.09
0	24694	5070.09	1640.09
0	24695	5070.09	1630.09
0	24696	5070.09	1530.09
0	24697	5070.09	1430.09
0	24698	5070.09	1620.09
0	24699	5070.09	1520.09
0	24700	5070.09	1420.09
0	24701	5070.09	1610.09
0	24702	5070.09	1510.09
0	24703	5070.09	1410.09
0	24704	5070.09	1400.09
0	24705	5070.09	1390.09
0	24706	5070.09	1380.09
0	24707	5070.09	1370.09
0	24708	5070.09	1360.09
0	24709	5070.09	1350.09
0	24710	5070.09	1340.09
0	24711	5070.09	1330.09
0	24712	5070.09	1320.09
0	24713	5070.09	1310.09
0	24714	5070.09	1300.09
0	24715	5070.09	1290.09
0	24716	5070.09	1280.09
0	24717	5070.09	1270.09
0	24718	5070.09	1260.09
0	24719	5070.09	1250.09
0	24720	5070.09	1240.09
0	24721	5070.09	1230.09
0	24722	5070.09	1220.09
0	24723	5070.09	1210.09
0	24724	5070.09	1200.09
0	24725	5070.09	1190.09
0	24726	5070.09	1180.09
0	24727	5070.09	1170.09
0	24728	5070.09	1160.09
0	24729	5070.09	1150.09
0	24730	5070.09	1140.09
0	24731	5070.09	1130.09
0	24732	5070.09	1120.09
0	24733	5070.09	1110.09
0	24734	5070.09	1100.09
0	24735	5070.09	1090.09
0	24736	5070.09	1080.09
0	24737	5070.09	1070.09
0	24738	5070.09	1060.09
0	24739	5070.09	1050.09
0	24740	5070.09	1040.09
0	24741	5070.09	1030.09
0	24742	5070.09	1020.09
0	24743	5070.09	1010.09
0	24744	5070.09	1000.09
0	24745	5070.09	990.09
0	24746	5070.09	980.09
0	24747	5070.09	970.09
0	24748	5070.09	960.09
0	24749	5070.09	950.09
0	24750	5070.09	940.09
0	24751	5070.09	930.09
0	24752	5070.09	920.09
0	24753	5070.09	910.09
0	24754	5070.09	850.09
0	25829	5070.19	1550.19
0	25830	5070.19	1550.19
0	25847	5070.22	750.22
0	26151	5080.09	850.09
0	26245	5080.19	1550.19
0	26259	5080.22	750.22
0	26362	5090.09	850.09
0	27006	5090.19	2140.19
0	27007	5090.19	2130.19
0	27008	5090.19	2120.19
0	27009	5090.19	2110.19
0	27010	5090.19	2100.19
0	27011	5090.19	2090.19
0	27012	5090.19	2080.19
0	27013	5090.19	2070.19
0	27014	5090.19	2060.19
0	27015	5090.19	2050.19
0	27016	5090.19	2040.19
0	27017	5090.19	2030.19
0	27018	5090.19	2020.19
0	27019	5090.19	2010.19
0	27020	5090.19	2000.19
0	27021	5090.19	1990.19
0	27022	5090.19	1980.19
0	27023	5090.19	1970.19
0	27024	5090.19	1960.19
0	27025	5090.19	1950.19
0	27026	5090.19	1940.19
0	27027	5090.19	1930.19
0	27028	5090.19	1920.19
0	27029	5090.19	1910.19
0	27030	5090.19	1900.19
0	27031	5090.19	1890.19
0	27032	5090.19	1880.19
0	27033	5090.19	1870.19
0	27034	5090.19	1860.19
0	27035	5090.19	1850.19
0	27036	5090.19	1840.19
0	27037	5090.19	1830.19
0	27038	5090.19	1820.19
0	27039	5090.19	1810.19
0	27040	5090.19	1800.19
0	27041	5090.19	1790.19
0	27042	5090.19	1780.19
0	27043	5090.19	1770.19
0	27044	5090.19	1760.19
0	27045	5090.19	1750.19
0	27046	5090.19	1740.19
0	27047	5090.19	1730.19
0	27048	5090.19	1720.19
0	27049	5090.19	1710.19
0	27050	5090.19	1700.19
0	27051	5090.19	1690.19
0	27052	5090.19	1680.19
0	27053	5090.19	1670.19
0	27054	5090.19	1660.19
0	27055	5090.19	1650.19
0	27056	5090.19	1550.19
0	27220	5090.22	750.22
0	27624	5100.09	850.09
0	27729	5100.19	1650.19
0	27730	5100.19	1550.19
0	27747	5100.22	750.22
0	27808	5110.09	850.09
0	27913	5110.19	1650.19
0	27914	5110.19	1550.19
0	27931	5110.22	750.22
0	28001	5120.09	950.09
0	28002	5120.09	850.09
0	28397	5120.22	750.22
0	28452	5130.09	950.09
0	28453	5130.09	850.09
0	28546	5130.22	750.22
0	28601	5140.09	950.09
0	28602	5140.09	850.09
0	28695	5140.22	750.22
0	28740	5150.09	950.09
0	28851	5150.19	1650.19
0	28875	5150.22	850.22
0	28876	5150.22	850.22
0	28877	5150.22	750.22
0	28950	5160.09	950.09
0	29061	5160.19	1650.19
0	29085	5160.22	850.22
0	29086	5160.22	850.22
0	29087	5160.22	750.22
0	30502	5170.09	1700.09
0	30503	5170.09	1600.09
0	30504	5170.09	1690.09
0	30505	5170.09	1590.09
0	30506	5170.09	1680.09
0	30507	5170.09	1580.09
0	30508	5170.09	1670.09
0	30509	5170.09	1570.09
0	30510	5170.09	1660.09
0	30511	5170.09	1560.09
0	30512	5170.09	1650.09
0	30513	5170.09	1550.09
0	30514	5170.09	1640.09
0	30515	5170.09	1540.09
0	30516	5170.09	2220.09
0	30517	5170.09	2210.09
0	30518	5170.09	2200.09
0	30519	5170.09	2190.09
0	30520	5170.09	2180.09
0	30521	5170.09	2170.09
0	30522	5170.09	2160.09
0	30523	5170.09	2150.09
0	30524	5170.09	2140.09
0	30525	5170.09	2130.09
0	30526	5170.09	2120.09
0	30527	5170.09	2110.09
0	30528	5170.09	2100.09
0	30529	5170.09	2090.09
0	30530	5170.09	2080.09
0	30531	5170.09	2070.09
0	30532	5170.09	2060.09
0	30533	5170.09	2050.09
0	30534	5170.09	2040.09
0	30535	5170.09	2030.09
0	30536	5170.09	2020.09
0	30537	5170.09	2010.09
0	30538	5170.09	2000.09
0	30539	5170.09	1990.09
0	30540	5170.09	1980.09
0	30541	5170.09	1970.09
0	30542	5170.09	1960.09
0	30543	5170.09	1950.09
0	30544	5170.09	1940.09
0	30545	5170.09	1930.09
0	30546	5170.09	1920.09
0	30547	5170.09	1910.09
0	30548	5170.09	1900.09
0	30549	5170.09	1890.09
0	30550	5170.09	1880.09
0	30551	5170.09	1870.09
0	30552	5170.09	1860.09
0	30553	5170.09	1850.09
0	30554	5170.09	1840.09
0	30555	5170.09	1830.09
0	30556	5170.09	1820.09
0	30557	5170.09	1810.09
0	30558	5170.09	1800.09
0	30559	5170.09	1790.09
0	30560	5170.09	1780.09
0	30561	5170.09	1770.09
0	30562	5170.09	1760.09
0	30563	5170.09	1750.09
0	30564	5170.09	1740.09
0	30565	5170.09	1730.09
0	30566	5170.09	1630.09
0	30567	5170.09	1530.09
0	30568	5170.09	1720.09
0	30569	5170.09	1620.09
0	30570	5170.09	1520.09
0	30571	5170.09	1710.09
0	30572	5170.09	1610.09
0	30573	5170.09	1510.09
0	30574	5170.09	1500.09
0	30575	5170.09	1490.09
0	30576	5170.09	1480.09
0	30577	5170.09	1470.09
0	30578	5170.09	1460.09
0	30579	5170.09	1450.09
0	30580	5170.09	1440.09
0	30581	5170.09	1430.09
0	30582	5170.09	1420.09
0	30583	5170.09	1410.09
0	30584	5170.09	1400.09
0	30585	5170.09	1390.09
0	30586	5170.09	1380.09
0	30587	5170.09	1370.09
0	30588	5170.09	1360.09
0	30589	5170.09	1350.09
0	30590	5170.09	1340.09
0	30591	5170.09	1330.09
0	30592	5170.09	1320.09
0	30593	5170.09	1310.09
0	30594	5170.09	1300.09
0	30595	5170.09	1290.09
0	30596	5170.09	1280.09
0	30597	5170.09	1270.09
0	30598	5170.09	1260.09
0	30599	5170.09	1250.09
0	30600	5170.09	1240.09
0	30601	5170.09	1230.09
0	30602	5170.09	1220.09
0	30603	5170.09	1210.09
0	30604	5170.09	1200.09
0	30605	5170.09	1190.09
0	30606	5170.09	1180.09
0	30607	5170.09	1170.09
0	30608	5170.09	1160.09
0	30609	5170.09	1150.09
0	30610	5170.09	1140.09
0	30611	5170.09	1130.09
0	30612	5170.09	1120.09
0	30613	5170.09	1110.09
0	30614	5170.09	1100.09
0	30615	5170.09	1090.09
0	30616	5170.09	1080.09
0	30617	5170.09	1070.09
0	30618	5170.09	1060.09
0	30619	5170.09	1050.09
0	30620	5170.09	1040.09
0	30621	5170.09	1030.09
0	30622	5170.09	1020.09
0	30623	5170.09	1010.09
0	30624	5170.09	950.09
0	31721	5170.19	1650.19
0	31722	5170.19	1650.19
0	31749	5170.22	850.22
0	31750	5170.22	850.22
0	31751	5170.22	750.22
0	32075	5180.09	950.09
0	32190	5180.19	1650.19
0	32214	5180.22	850.22
0	32215	5180.22	850.22
0	32216	5180.22	750.22
0	32339	5190.09	950.09
0	33004	5190.19	2240.19
0	33005	5190.19	2230.19
0	33006	5190.19	2220.19
0	33007	5190.19	2210.19
0	33008	5190.19	2200.19
0	33009	5190.19	2190.19
0	33010	5190.19	2180.19
0	33011	5190.19	2170.19
0	33012	5190.19	2160.19
0	33013	5190.19	2150.19
0	33014	5190.19	2140.19
0	33015	5190.19	2130.19
0	33016	5190.19	2120.19
0	33017	5190.19	2110.19
0	33018	5190.19	2100.19
0	33019	5190.19	2090.19
0	33020	5190.19	2080.19
0	33021	5190.19	2070.19
0	33022	5190.19	2060.19
0	33023	5190.19	2050.19
0	33024	5190.19	2040.19
0	33025	5190.19	2030.19
0	33026	5190.19	2020.19
0	33027	5190.19	2010.19
0	33028	5190.19	2000.19
0	33029	5190.19	1990.19
0	33030	5190.19	1980.19
0	33031	5190.19	1970.19
0	33032	5190.19	1960.19
0	33033	5190.19	1950.19
0	33034	5190.19	1940.19
0	33035	5190.19	1930.19
0	33036	5190.19	1920.19
0	33037	5190.19	1910.19
0	33038	5190.19	1900.19
0	33039	5190.19	1890.19
0	33040	5190.19	1880.19
0	33041	5190.19	1870.19
0	33042	5190.19	1860.19
0	33043	5190.19	1850.19
0	33044	5190.19	1840.19
0	33045	5190.19	1830.19
0	33046	5190.19	1820.19
0	33047	5190.19	1810.19
0	33048	5190.19	1800.19
0	33049	5190.19	1790.19
0	33050	5190.19	1780.19
0	33051	5190.19	1770.19
0	33052	5190.19	1760.19
0	33053	5190.19	1750.19
0	33054	5190.19	1650.19
0	33228	5190.22	850.22
0	33229	5190.22	850.22
0	33230	5190.22	750.22
0	33654	5200.09	950.09
0	33780	5200.19	1750.19
0	33781	5200.19	1650.19
0	33808	5200.22	850.22
0	33809	5200.22	850.22
0	33810	5200.22	750.22
0	33891	5210.09	950.09
0	34017	5210.19	1750.19
0	34018	5210.19	1650.19
0	34045	5210.22	850.22
0	34046	5210.22	850.22
0	34047	5210.22	750.22
0	34137	5220.09	1050.09
0	34138	5220.09	950.09
0	34502	5220.22	850.22
0	34503	5220.22	850.22
0	34504	5220.22	750.22
0	34579	5230.09	1050.09
0	34580	5230.09	950.09
0	34704	5230.22	850.22
0	34705	5230.22	850.22
0	34706	5230.22	750.22
0	34781	5240.09	1050.09
0	34782	5240.09	950.09
0	34906	5240.22	850.22
0	34907	5240.22	850.22
0	34908	5240.22	750.22
0	34973	5250.09	1050.09
0	35107	5250.19	1750.19
0	35141	5250.22	950.22
0	35142	5250.22	850.22
0	35143	5250.22	950.22
0	35144	5250.22	850.22
0	35145	5250.22	750.22
0	35238	5260.09	1050.09
0	35372	5260.19	1750.19
0	35406	5260.22	950.22
0	35407	5260.22	850.22
0	35408	5260.22	950.22
0	35409	5260.22	850.22
0	35410	5260.22	750.22
0	36845	5270.09	1800.09
0	36846	5270.09	1700.09
0	36847	5270.09	1790.09
0	36848	5270.09	1690.09
0	36849	5270.09	1780.09
0	36850	5270.09	1680.09
0	36851	5270.09	1770.09
0	36852	5270.09	1670.09
0	36853	5270.09	1760.09
0	36854	5270.09	1660.09
0	36855	5270.09	1750.09
0	36856	5270.09	1650.09
0	36857	5270.09	1740.09
0	36858	5270.09	1640.09
0	36859	5270.09	2320.09
0	36860	5270.09	2310.09
0	36861	5270.09	2300.09
0	36862	5270.09	2290.09
0	36863	5270.09	2280.09
0	36864	5270.09	2270.09
0	36865	5270.09	2260.09
0	36866	5270.09	2250.09
0	36867	5270.09	2240.09
0	36868	5270.09	2230.09
0	36869	5270.09	2220.09
0	36870	5270.09	2210.09
0	36871	5270.09	2200.09
0	36872	5270.09	2190.09
0	36873	5270.09	2180.09
0	36874	5270.09	2170.09
0	36875	5270.09	2160.09
0	36876	5270.09	2150.09
0	36877	5270.09	2140.09
0	36878	5270.09	2130.09
0	36879	5270.09	2120.09
0	36880	5270.09	2110.09
0	36881	5270.09	2100.09
0	36882	5270.09	2090.09
0	36883	5270.09	2080.09
0	36884	5270.09	2070.09
0	36885	5270.09	2060.09
0	36886	5270.09	2050.09
0	36887	5270.09	2040.09
0	36888	5270.09	2030.09
0	36889	5270.09	2020.09
0	36890	5270.09	2010.09
0	36891	5270.09	2000.09
0	36892	5270.09	1990.09
0	36893	5270.09	1980.09
0	36894	5270.09	1970.09
0	36895	5270.09	1960.09
0	36896	5270.09	1950.09
0	36897	5270.09	1940.09
0	36898	5270.09	1930.09
0	36899	5270.09	1920.09
0	36900	5270.09	1910.09
0	36901	5270.09	1900.09
0	36902	5270.09	1890.09
0	36903	5270.09	1880.09
0	36904	5270.09	1870.09
0	36905	5270.09	1860.09
0	36906	5270.09	1850.09
0	36907	5270.09	1840.09
0	36908	5270.09	1830.09
0	36909	5270.09	1730.09
0	36910	5270.09	1630.09
0	36911	5270.09	1820.09
0	36912	5270.09	1720.09
0	36913	5270.09	1620.09
0	36914	5270.09	1810.09
0	36915	5270.09	1710.09
0	36916	5270.09	1610.09
0	36917	5270.09	1600.09
0	36918	5270.09	1590.09
0	36919	5270.09	1580.09
0	36920	5270.09	1570.09
0	36921	5270.09	1560.09
0	36922	5270.09	1550.09
0	36923	5270.09	1540.09
0	36924	5270.09	1530.09
0	36925	5270.09	1520.09
0	36926	5270.09	1510.09
0	36927	5270.09	1500.09
0	36928	5270.09	1490.09
0	36929	5270.09	1480.09
0	36930	5270.09	1470.09
0	36931	5270.09	1460.09
0	36932	5270.09	1450.09
0	36933	5270.09	1440.09
0	36934	5270.09	1430.09
0	36935	5270.09	1420.09
0	36936	5270.09	1410.09
0	36937	5270.09	1400.09
0	36938	5270.09	1390.09
0	36939	5270.09	1380.09
0	36940	5270.09	1370.09
0	36941	5270.09	1360.09
0	36942	5270.09	1350.09
0	36943	5270.09	1340.09
0	36944	5270.09	1330.09
0	36945	5270.09	1320.09
0	36946	5270.09	1310.09
0	36947	5270.09	1300.09
0	36948	5270.09	1290.09
0	36949	5270.09	1280.09
0	36950	5270.09	1270.09
0	36951	5270.09	1260.09
0	36952	5270.09	1250.09
0	36953	5270.09	1240.09
0	36954	5270.09	1230.09
0	36955	5270.09	1220.09
0	36956	5270.09	1210.09
0	36957	5270.09	1200.09
0	36958	5270.09	1190.09
0	36959	5270.09	1180.09
0	36960	5270.09	1170.09
0	36961	5270.09	1160.09
0	36962	5270.09	1150.09
0	36963	5270.09	1140.09
0	36964	5270.09	1130.09
0	36965	5270.09	1120.09
0	36966	5270.09	1110.09
0	36967	5270.09	1050.09
0	38087	5270.19	1750.19
0	38088	5270.19	1750.19
0	38125	5270.22	950.22
0	38126	5270.22	850.22
0	38127	5270.22	950.22
0	38128	5270.22	850.22
0	38129	5270.22	750.22
0	38473	5280.09	1050.09
0	38611	5280.19	1750.19
0	38645	5280.22	950.22
0	38646	5280.22	850.22
0	38647	5280.22	950.22
0	38648	5280.22	850.22
0	38649	5280.22	750.22
0	38792	5290.09	1050.09
0	39480	5290.19	2340.19
0	39481	5290.19	2330.19
0	39482	5290.19	2320.19
0	39483	5290.19	2310.19
0	39484	5290.19	2300.19
0	39485	5290.19	2290.19
0	39486	5290.19	2280.19
0	39487	5290.19	2270.19
0	39488	5290.19	2260.19
0	39489	5290.19	2250.19
0	39490	5290.19	2240.19
0	39491	5290.19	2230.19
0	39492	5290.19	2220.19
0	39493	5290.19	2210.19
0	39494	5290.19	2200.19
0	39495	5290.19	2190.19
0	39496	5290.19	2180.19
0	39497	5290.19	2170.19
0	39498	5290.19	2160.19
0	39499	5290.19	2150.19
0	39500	5290.19	2140.19
0	39501	5290.19	2130.19
0	39502	5290.19	2120.19
0	39503	5290.19	2110.19
0	39504	5290.19	2100.19
0	39505	5290.19	2090.19
0	39506	5290.19	2080.19
0	39507	5290.19	2070.19
0	39508	5290.19	2060.19
0	39509	5290.19	2050.19
0	39510	5290.19	2040.19
0	39511	5290.19	2030.19
0	39512	5290.19	2020.19
0	39513	5290.19	2010.19
0	39514	5290.19	2000.19
0	39515	5290.19	1990.19
0	39516	5290.19	1980.19
0	39517	5290.19	1970.19
0	39518	5290.19	1960.19
0	39519	5290.19	1950.19
0	39520	5290.19	1940.19
0	39521	5290.19	1930.19
0	39522	5290.19	1920.19
0	39523	5290.19	1910.19
0	39524	5290.19	1900.19
0	39525	5290.19	1890.19
0	39526	5290.19	1880.19
0	39527	5290.19	1870.19
0	39528	5290.19	1860.19
0	39529	5290.19	1850.19
0	39530	5290.19	1750.19
0	39714	5290.22	950.22
0	39715	5290.22	850.22
0	39716	5290.22	950.22
0	39717	5290.22	850.22
0	39718	5290.22	750.22
0	40162	5300.09	1050.09
0	40311	5300.19	1850.19
0	40312	5300.19	1750.19
0	40349	5300.22	950.22
0	40350	5300.22	850.22
0	40351	5300.22	950.22
0	40352	5300.22	850.22
0	40353	5300.22	750.22
0	40454	5310.09	1050.09
0	40603	5310.19	1850.19
0	40604	5310.19	1750.19
0	40641	5310.22	950.22
0	40642	5310.22	850.22
0	40643	5310.22	950.22
0	40644	5310.22	850.22
0	40645	5310.22	750.22
0	40755	5320.09	1150.09
0	40756	5320.09	1050.09
0	41153	5320.22	950.22
0	41154	5320.22	850.22
0	41155	5320.22	950.22
0	41156	5320.22	850.22
0	41157	5320.22	750.22
0	41252	5330.09	1150.09
0	41253	5330.09	1050.09
0	41410	5330.22	950.22
0	41411	5330.22	850.22
0	41412	5330.22	950.22
0	41413	5330.22	850.22
0	41414	5330.22	750.22
0	41509	5340.09	1150.09
0	41510	5340.09	1050.09
0	41667	5340.22	950.22
0	41668	5340.22	850.22
0	41669	5340.22	950.22
0	41670	5340.22	850.22
0	41671	5340.22	750.22
0	41756	5350.09	1150.09
0	41913	5350.19	1850.19
0	41957	5350.22	1050.22
0	41958	5350.22	950.22
0	41959	5350.22	850.22
0	41960	5350.22	1050.22
0	41961	5350.22	950.22
0	41962	5350.22	850.22
0	41963	5350.22	750.22
0	42076	5360.09	1150.09
0	42233	5360.19	1850.19
0	42277	5360.22	1050.22
0	42278	5360.22	950.22
0	42279	5360.22	850.22
0	42280	5360.22	1050.22
0	42281	5360.22	950.22
0	42282	5360.22	850.22
0	42283	5360.22	750.22
0	43738	5370.09	1900.09
0	43739	5370.09	1800.09
0	43740	5370.09	1890.09
0	43741	5370.09	1790.09
0	43742	5370.09	1880.09
0	43743	5370.09	1780.09
0	43744	5370.09	1870.09
0	43745	5370.09	1770.09
0	43746	5370.09	1860.09
0	43747	5370.09	1760.09
0	43748	5370.09	1850.09
0	43749	5370.09	1750.09
0	43750	5370.09	1840.09
0	43751	5370.09	1740.09
0	43752	5370.09	2420.09
0	43753	5370.09	2410.09
0	43754	5370.09	2400.09
0	43755	5370.09	2390.09
0	43756	5370.09	2380.09
0	43757	5370.09	2370.09
0	43758	5370.09	2360.09
0	43759	5370.09	2350.09
0	43760	5370.09	2340.09
0	43761	5370.09	2330.09
0	43762	5370.09	2320.09
0	43763	5370.09	2310.09
0	43764	5370.09	2300.09
0	43765	5370.09	2290.09
0	43766	5370.09	2280.09
0	43767	5370.09	2270.09
0	43768	5370.09	2260.09
0	43769	5370.09	2250.09
0	43770	5370.09	2240.09
0	43771	5370.09	2230.09
0	43772	5370.09	2220.09
0	43773	5370.09	2210.09
0	43774	5370.09	2200.09
0	43775	5370.09	2190.09
0	43776	5370.09	2180.09
0	43777	5370.09	2170.09
0	43778	5370.09	2160.09
0	43779	5370.09	2150.09
0	43780	5370.09	2140.09
0	43781	5370.09	2130.09
0	43782	5370.09	2120.09
0	43783	5370.09	2110.09
0	43784	5370.09	2100.09
0	43785	5370.09	2090.09
0	43786	5370.09	2080.09
0	43787	5370.09	2070.09
0	43788	5370.09	2060.09
0	43789	5370.09	2050.09
0	43790	5370.09	2040.09
0	43791	5370.09	2030.09
0	43792	5370.09	2020.09
0	43793	5370.09	2010.09
0	43794	5370.09	2000.09
0	43795	5370.09	1990.09
0	43796	5370.09	1980.09
0	43797	5370.09	1970.09
0	43798	5370.09	1960.09
0	43799	5370.09	1950.09
0	43800	5370.09	1940.09
0	43801	5370.09	1930.09
0	43802	5370.09	1830.09
0	43803	5370.09	1730.09
0	43804	5370.09	1920.09
0	43805	5370.09	1820.09
0	43806	5370.09	1720.09
0	43807	5370.09	1910.09
0	43808	5370.09	1810.09
0	43809	5370.09	1710.09
0	43810	5370.09	1700.09
0	43811	5370.09	1690.09
0	43812	5370.09	1680.09
0	43813	5370.09	1670.09
0	43814	5370.09	1660.09
0	43815	5370.09	1650.09
0	43816	5370.09	1640.09
0	43817	5370.09	1630.09
0	43818	5370.09	1620.09
0	43819	5370.09	1610.09
0	43820	5370.09	1600.09
0	43821	5370.09	1590.09
0	43822	5370.09	1580.09
0	43823	5370.09	1570.09
0	43824	5370.09	1560.09
0	43825	5370.09	1550.09
0	43826	5370.09	1540.09
0	43827	5370.09	1530.09
0	43828	5370.09	1520.09
0	43829	5370.09	1510.09
0	43830	5370.09	1500.09
0	43831	5370.09	1490.09
0	43832	5370.09	1480.09
0	43833	5370.09	1470.09
0	43834	5370.09	1460.09
0	43835	5370.09	1450.09
0	43836	5370.09	1440.09
0	43837	5370.09	1430.09
0	43838	5370.09	1420.09
0	43839	5370.09	1410.09
0	43840	5370.09	1400.09
0	43841	5370.09	1390.09
0	43842	5370.09	1380.09
0	43843	5370.09	1370.09
0	43844	5370.09	1360.09
0	43845	5370.09	1350.09
0	43846	5370.09	1340.09
0	43847	5370.09	1330.09
0	43848	5370.09	1320.09
0	43849	5370.09	1310.09
0	43850	5370.09	1300.09
0	43851	5370.09	1290.09
0	43852	5370.09	1280.09
0	43853	5370.09	1270.09
0	43854	5370.09	1260.09
0	43855	5370.09	1250.09
0	43856	5370.09	1240.09
0	43857	5370.09	1230.09
0	43858	5370.09	1220.09
0	43859	5370.09	1210.09
0	43860	5370.09	1150.09
0	45003	5370.19	1850.19
0	45004	5370.19	1850.19
0	45051	5370.22	1050.22
0	45052	5370.22	950.22
0	45053	5370.22	850.22
0	45054	5370.22	1050.22
0	45055	5370.22	950.22
0	45056	5370.22	850.22
0	45057	5370.22	750.22
0	45421	5380.09	1150.09
0	45582	5380.19	1850.19
0	45626	5380.22	1050.22
0	45627	5380.22	950.22
0	45628	5380.22	850.22
0	45629	5380.22	1050.22
0	45630	5380.22	950.22
0	45631	5380.22	850.22
0	45632	5380.22	750.22
0	45795	5390.09	1150.09
0	46506	5390.19	2440.19
0	46507	5390.19	2430.19
0	46508	5390.19	2420.19
0	46509	5390.19	2410.19
0	46510	5390.19	2400.19
0	46511	5390.19	2390.19
0	46512	5390.19	2380.19
0	46513	5390.19	2370.19
0	46514	5390.19	2360.19
0	46515	5390.19	2350.19
0	46516	5390.19	2340.19
0	46517	5390.19	2330.19
0	46518	5390.19	2320.19
0	46519	5390.19	2310.19
0	46520	5390.19	2300.19
0	46521	5390.19	2290.19
0	46522	5390.19	2280.19
0	46523	5390.19	2270.19
0	46524	5390.19	2260.19
0	46525	5390.19	2250.19
0	46526	5390.19	2240.19
0	46527	5390.19	2230.19
0	46528	5390.19	2220.19
0	46529	5390.19	2210.19
0	46530	5390.19	2200.19
0	46531	5390.19	2190.19
0	46532	5390.19	2180.19
0	46533	5390.19	2170.19
0	46534	5390.19	2160.19
0	46535	5390.19	2150.19
0	46536	5390.19	2140.19
0	46537	5390.19	2130.19
0	46538	5390.19	2120.19
0	46539	5390.19	2110.19
0	46540	5390.19	2100.19
0	46541	5390.19	2090.19
0	46542	5390.19	2080.19
0	46543	5390.19	2070.19
0	46544	5390.19	2060.19
0	46545	5390.19	2050.19
0	46546	5390.19	2040.19
0	46547	5390.19	2030.19
0	46548	5390.19	2020.19
0	46549	5390.19	2010.19
0	46550	5390.19	2000.19
0	46551	5390.19	1990.19
0	46552	5390.19	1980.19
0	46553	5390.19	1970.19
0	46554	5390.19	1960.19
0	46555	5390.19	1950.19
0	46556	5390.19	1850.19
0	46750	5390.22	1050.22
0	46751	5390.22	950.22
0	46752	5390.22	850.22
0	46753	5390.22	1050.22
0	46754	5390.22	950.22
0	46755	5390.22	850.22
0	46756	5390.22	750.22
0	47220	5400.09	1150.09
0	47392	5400.19	1950.19
0	47393	5400.19	1850.19
0	47440	5400.22	1050.22
0	47441	5400.22	950.22
0	47442	5400.22	850.22
0	47443	5400.22	1050.22
0	47444	5400.22	950.22
0	47445	5400.22	850.22
0	47446	5400.22	750.22
0	47567	5410.09	1150.09
0	47739	5410.19	1950.19
0	47740	5410.19	1850.19
0	47787	5410.22	1050.22
0	47788	5410.22	950.22
0	47789	5410.22	850.22
0	47790	5410.22	1050.22
0	47791	5410.22	950.22
0	47792	5410.22	850.22
0	47793	5410.22	750.22
0	47923	5420.09	1250.09
0	47924	5420.09	1150.09
0	48354	5420.22	1050.22
0	48355	5420.22	950.22
0	48356	5420.22	850.22
0	48357	5420.22	1050.22
0	48358	5420.22	950.22
0	48359	5420.22	850.22
0	48360	5420.22	750.22
0	48475	5430.09	1250.09
0	48476	5430.09	1150.09
0	48666	5430.22	1050.22
0	48667	5430.22	950.22
0	48668	5430.22	850.22
0	48669	5430.22	1050.22
0	48670	5430.22	950.22
0	48671	5430.22	850.22
0	48672	5430.22	750.22
0	48787	5440.09	1250.09
0	48788	5440.09	1150.09
0	48978	5440.22	1050.22
0	48979	5440.22	950.22
0	48980	5440.22	850.22
0	48981	5440.22	1050.22
0	48982	5440.22	950.22
0	48983	5440.22	850.22
0	48984	5440.22	750.22
0	49089	5450.09	1250.09
0	49269	5450.19	1950.19
0	49323	5450.22	1150.22
0	49324	5450.22	1050.22
0	49325	5450.22	950.22
0	49326	5450.22	850.22
0	49327	5450.22	1150.22
0	49328	5450.22	1050.22
0	49329	5450.22	950.22
0	49330	5450.22	850.22
0	49331	5450.22	750.22
0	49464	5460.09	1250.09
0	49644	5460.19	1950.19
0	49698	5460.22	1150.22
0	49699	5460.22	1050.22
0	49700	5460.22	950.22
0	49701	5460.22	850.22
0	49702	5460.22	1150.22
0	49703	5460.22	1050.22
0	49704	5460.22	950.22
0	49705	5460.22	850.22
0	49706	5460.22	750.22
0	51181	5470.09	2000.09
0	51182	5470.09	1900.09
0	51183	5470.09	1990.09
0	51184	5470.09	1890.09
0	51185	5470.09	1980.09
0	51186	5470.09	1880.09
0	51187	5470.09	1970.09
0	51188	5470.09	1870.09
0	51189	5470.09	1960.09
0	51190	5470.09	1860.09
0	51191	5470.09	1950.09
0	51192	5470.09	1850.09
0	51193	5470.09	1940.09
0	51194	5470.09	1840.09
0	51195	5470.09	2520.09
0	51196	5470.09	2510.09
0	51197	5470.09	2500.09
0	51198	5470.09	2490.09
0	51199	5470.09	2480.09
0	51200	5470.09	2470.09
0	51201	5470.09	2460.09
0	51202	5470.09	2450.09
0	51203	5470.09	2440.09
0	51204	5470.09	2430.09
0	51205	5470.09	2420.09
0	51206	5470.09	2410.09
0	51207	5470.09	2400.09
0	51208	5470.09	2390.09
0	51209	5470.09	2380.09
0	51210	5470.09	2370.09
0	51211	5470.09	2360.09
0	51212	5470.09	2350.09
0	51213	5470.09	2340.09
0	51214	5470.09	2330.09
0	51215	5470.09	2320.09
0	51216	5470.09	2310.09
0	51217	5470.09	2300.09
0	51218	5470.09	2290.09
0	51219	5470.09	2280.09
0	51220	5470.09	2270.09
0	51221	5470.09	2260.09
0	51222	5470.09	2250.09
0	51223	5470.09	2240.09
0	51224	5470.09	2230.09
0	51225	5470.09	2220.09
0	51226	5470.09	2210.09
0	51227	5470.09	2200.09
0	51228	5470.09	2190.09
0	51229	5470.09	2180.09
0	51230	5470.09	2170.09
0	51231	5470.09	2160.09
0	51232	5470.09	2150.09
0	51233	5470.09	2140.09
0	51234	5470.09	2130.09
0	51235	5470.09	2120.09
0	51236	5470.09	2110.09
0	51237	5470.09	2100.09
0	51238	5470.09	2090.09
0	51239	5470.09	2080.09
0	51240	5470.09	2070.09
0	51241	5470.09	2060.09
0	51242	5470.09	2050.09
0	51243	5470.09	2040.09
0	51244	5470.09	2030.09
0	51245	5470.09	1930.09
0	51246	5470.09	1830.09
0	51247	5470.09	2020.09
0	51248	5470.09	1920.09
0	51249	5470.09	1820.09
0	51250	5470.09	2010.09
0	51251	5470.09	1910.09
0	51252	5470.09	1810.09
0	51253	5470.09	1800.09
0	51254	5470.09	1790.09
0	51255	5470.09	1780.09
0	51256	5470.09	1770.09
0	51257	5470.09	1760.09
0	51258	5470.09	1750.09
0	51259	5470.09	1740.09
0	51260	5470.09	1730.09
0	51261	5470.09	1720.09
0	51262	5470.09	1710.09
0	51263	5470.09	1700.09
0	51264	5470.09	1690.09
0	51265	5470.09	1680.09
0	51266	5470.09	1670.09
0	51267	5470.09	1660.09
0	51268	5470.09	1650.09
0	51269	5470.09	1640.09
0	51270	5470.09	1630.09
0	51271	5470.09	1620.09
0	51272	5470.09	1610.09
0	51273	5470.09	1600.09
0	51274	5470.09	1590.09
0	51275	5470.09	1580.09
0	51276	5470.09	1570.09
0	51277	5470.09	1560.09
0	51278	5470.09	1550.09
0	51279	5470.09	1540.09
0	51280	5470.09	1530.09
0	51281	5470.09	1520.09
0	51282	5470.09	1510.09
0	51283	5470.09	1500.09
0	51284	5470.09	1490.09
0	51285	5470.09	1480.09
0	51286	5470.09	1470.09
0	51287	5470.09	1460.09
0	51288	5470.09	1450.09
0	51289	5470.09	1440.09
0	51290	5470.09	1430.09
0	51291	5470.09	1420.09
0	51292	5470.09	1410.09
0	51293	5470.09	1400.09
0	51294	5470.09	1390.09
0	51295	5470.09	1380.09
0	51296	5470.09	1370.09
0	51297	5470.09	1360.09
0	51298	5470.09	1350.09
0	51299	5470.09	1340.09
0	51300	5470.09	1330.09
0	51301	5470.09	1320.09
0	51302	5470.09	1310.09
0	51303	5470.09	1250.09
0	52469	5470.19	1950.19
0	52470	5470.19	1950.19
0	52527	5470.22	1150.22
0	52528	5470.22	1050.22
0	52529	5470.22	950.22
0	52530	5470.22	850.22
0	52531	5470.22	1150.22
0	52532	5470.22	1050.22
0	52533	5470.22	950.22
0	52534	5470.22	850.22
0	52535	5470.22	750.22
0	52919	5480.09	1250.09
0	53103	5480.19	1950.19
0	53157	5480.22	1150.22
0	53158	5480.22	1050.22
0	53159	5480.22	950.22
0	53160	5480.22	850.22
0	53161	5480.22	1150.22
0	53162	5480.22	1050.22
0	53163	5480.22	950.22
0	53164	5480.22	850.22
0	53165	5480.22	750.22
0	53348	5490.09	1250.09
0	54082	5490.19	2540.19
0	54083	5490.19	2530.19
0	54084	5490.19	2520.19
0	54085	5490.19	2510.19
0	54086	5490.19	2500.19
0	54087	5490.19	2490.19
0	54088	5490.19	2480.19
0	54089	5490.19	2470.19
0	54090	5490.19	2460.19
0	54091	5490.19	2450.19
0	54092	5490.19	2440.19
0	54093	5490.19	2430.19
0	54094	5490.19	2420.19
0	54095	5490.19	2410.19
0	54096	5490.19	2400.19
0	54097	5490.19	2390.19
0	54098	5490.19	2380.19
0	54099	5490.19	2370.19
0	54100	5490.19	2360.19
0	54101	5490.19	2350.19
0	54102	5490.19	2340.19
0	54103	5490.19	2330.19
0	54104	5490.19	2320.19
0	54105	5490.19	2310.19
0	54106	5490.19	2300.19
0	54107	5490.19	2290.19
0	54108	5490.19	2280.19
0	54109	5490.19	2270.19
0	54110	5490.19	2260.19
0	54111	5490.19	2250.19
0	54112	5490.19	2240.19
0	54113	5490.19	2230.19
0	54114	5490.19	2220.19
0	54115	5490.19	2210.19
0	54116	5490.19	2200.19
0	54117	5490.19	2190.19
0	54118	5490.19	2180.19
0	54119	5490.19	2170.19
0	54120	5490.19	2160.19
0	54121	5490.19	2150.19
0	54122	5490.19	2140.19
0	54123	5490.19	2130.19
0	54124	5490.19	2120.19
0	54125	5490.19	2110.19
0	54126	5490.19	2100.19
0	54127	5490.19	2090.19
0	54128	5490.19	2080.19
0	54129	5490.19	2070.19
0	54130	5490.19	2060.19
0	54131	5490.19	2050.19
0	54132	5490.19	1950.19
0	54336	5490.22	1150.22
0	54337	5490.22	1050.22
0	54338	5490.22	950.22
0	54339	5490.22	850.22
0	54340	5490.22	1150.22
0	54341	5490.22	1050.22
0	54342	5490.22	950.22
0	54343	5490.22	850.22
0	54344	5490.22	750.22
0	54828	5500.09	1250.09
0	55023	5500.19	2050.19
0	55024	5500.19	1950.19
0	55081	5500.22	1150.22
0	55082	5500.22	1050.22
0	55083	5500.22	950.22
0	55084	5500.22	850.22
0	55085	5500.22	1150.22
0	55086	5500.22	1050.22
0	55087	5500.22	950.22
0	55088	5500.22	850.22
0	55089	5500.22	750.22
0	55230	5510.09	1250.09
0	55425	5510.19	2050.19
0	55426	5510.19	1950.19
0	55483	5510.22	1150.22
0	55484	5510.22	1050.22
0	55485	5510.22	950.22
0	55486	5510.22	850.22
0	55487	5510.22	1150.22
0	55488	5510.22	1050.22
0	55489	5510.22	950.22
0	55490	5510.22	850.22
0	55491	5510.22	750.22
0	55641	5520.09	1350.09
0	55642	5520.09	1250.09
0	56105	5520.22	1150.22
0	56106	5520.22	1050.22
0	56107	5520.22	950.22
0	56108	5520.22	850.22
0	56109	5520.22	1150.22
0	56110	5520.22	1050.22
0	56111	5520.22	950.22
0	56112	5520.22	850.22
0	56113	5520.22	750.22
0	56248	5530.09	1350.09
0	56249	5530.09	1250.09
0	56472	5530.22	1150.22
0	56473	5530.22	1050.22
0	56474	5530.22	950.22
0	56475	5530.22	850.22
0	56476	5530.22	1150.22
0	56477	5530.22	1050.22
0	56478	5530.22	950.22
0	56479	5530.22	850.22
0	56480	5530.22	750.22
0	56615	5540.09	1350.09
0	56616	5540.09	1250.09
0	56839	5540.22	1150.22
0	56840	5540.22	1050.22
0	56841	5540.22	950.22
0	56842	5540.22	850.22
0	56843	5540.22	1150.22
0	56844	5540.22	1050.22
0	56845	5540.22	950.22
0	56846	5540.22	850.22
0	56847	5540.22	750.22
0	56972	5550.09	1350.09
0	57175	5550.19	2050.19
0	57239	5550.22	1250.22
0	57240	5550.22	1150.22
0	57241	5550.22	1050.22
0	57242	5550.22	950.22
0	57243	5550.22	850.22
0	57244	5550.22	1250.22
0	57245	5550.22	1150.22
0	57246	5550.22	1050.22
0	57247	5550.22	950.22
0	57248	5550.22	850.22
0	57249	5550.22	750.22
0	57402	5560.09	1350.09
0	57605	5560.19	2050.19
0	57669	5560.22	1250.22
0	57670	5560.22	1150.22
0	57671	5560.22	1050.22
0	57672	5560.22	950.22
0	57673	5560.22	850.22
0	57674	5560.22	1250.22
0	57675	5560.22	1150.22
0	57676	5560.22	1050.22
0	57677	5560.22	950.22
0	57678	5560.22	850.22
0	57679	5560.22	750.22
0	59174	5570.09	2100.09
0	59175	5570.09	2000.09
0	59176	5570.09	2090.09
0	59177	5570.09	1990.09
0	59178	5570.09	2080.09
0	59179	5570.09	1980.09
0	59180	5570.09	2070.09
0	59181	5570.09	1970.09
0	59182	5570.09	2060.09
0	59183	5570.09	1960.09
0	59184	5570.09	2050.09
0	59185	5570.09	1950.09
0	59186	5570.09	2040.09
0	59187	5570.09	1940.09
0	59188	5570.09	2620.09
0	59189	5570.09	2610.09
0	59190	5570.09	2600.09
0	59191	5570.09	2590.09
0	59192	5570.09	2580.09
0	59193	5570.09	2570.09
0	59194	5570.09	2560.09
0	59195	5570.09	2550.09
0	59196	5570.09	2540.09
0	59197	5570.09	2530.09
0	59198	5570.09	2520.09
0	59199	5570.09	2510.09
0	59200	5570.09	2500.09
0	59201	5570.09	2490.09
0	59202	5570.09	2480.09
0	59203	5570.09	2470.09
0	59204	5570.09	2460.09
0	59205	5570.09	2450.09
0	59206	5570.09	2440.09
0	59207	5570.09	2430.09
0	59208	5570.09	2420.09
0	59209	5570.09	2410.09
0	59210	5570.09	2400.09
0	59211	5570.09	2390.09
0	59212	5570.09	2380.09
0	59213	5570.09	2370.09
0	59214	5570.09	2360.09
0	59215	5570.09	2350.09
0	59216	5570.09	2340.09
0	59217	5570.09	2330.09
0	59218	5570.09	2320.09
0	59219	5570.09	2310.09
0	59220	5570.09	2300.09
0	59221	5570.09	2290.09
0	59222	5570.09	2280.09
0	59223	5570.09	2270.09
0	59224	5570.09	2260.09
0	59225	5570.09	2250.09
0	59226	5570.09	2240.09
0	59227	5570.09	2230.09
0	59228	5570.09	2220.09
0	59229	5570.09	2210.09
0	59230	5570.09	2200.09
0	59231	5570.09	2190.09
0	59232	5570.09	2180.09
0	59233	5570.09	2170.09
0	59234	5570.09	2160.09
0	59235	5570.09	2150.09
0	59236	5570.09	2140.09
0	59237	5570.09	2130.09
0	59238	5570.09	2030.09
0	59239	5570.09	1930.09
0	59240	5570.09	2120.09
0	59241	5570.09	2020.09
0	59242	5570.09	1920.09
0	59243	5570.09	2110.09
0	59244	5570.09	2010.09
0	59245	5570.09	1910.09
0	59246	5570.09	1900.09
0	59247	5570.09	1890.09
0	59248	5570.09	1880.09
0	59249	5570.09	1870.09
0	59250	5570.09	1860.09
0	59251	5570.09	1850.09
0	59252	5570.09	1840.09
0	59253	5570.09	1830.09
0	59254	5570.09	1820.09
0	59255	5570.09	1810.09
0	59256	5570.09	1800.09
0	59257	5570.09	1790.09
0	59258	5570.09	1780.09
0	59259	5570.09	1770.09
0	59260	5570.09	1760.09
0	59261	5570.09	1750.09
0	59262	5570.09	1740.09
0	59263	5570.09	1730.09
0	59264	5570.09	1720.09
0	59265	5570.09	1710.09
0	59266	5570.09	1700.09
0	59267	5570.09	1690.09
0	59268	5570.09	1680.09
0	59269	5570.09	1670.09
0	59270	5570.09	1660.09
0	59271	5570.09	1650.09
0	59272	5570.09	1640.09
0	59273	5570.09	1630.09
0	59274	5570.09	1620.09
0	59275	5570.09	1610.09
0	59276	5570.09	1600.09
0	59277	5570.09	1590.09
0	59278	5570.09	1580.09
0	59279	5570.09	1570.09
0	59280	5570.09	1560.09
0	59281	5570.09	1550.09
0	59282	5570.09	1540.09
0	59283	5570.09	1530.09
0	59284	5570.09	1520.09
0	59285	5570.09	1510.09
0	59286	5570.09	1500.09
0	59287	5570.09	1490.09
0	59288	5570.09	1480.09
0	59289	5570.09	1470.09
0	59290	5570.09	1460.09
0	59291	5570.09	1450.09
0	59292	5570.09	1440.09
0	59293	5570.09	1430.09
0	59294	5570.09	1420.09
0	59295	5570.09	1410.09
0	59296	5570.09	1350.09
0	60485	5570.19	2050.19
0	60486	5570.19	2050.19
0	60553	5570.22	1250.22
0	60554	5570.22	1150.22
0	60555	5570.22	1050.22
0	60556	5570.22	950.22
0	60557	5570.22	850.22
0	60558	5570.22	1250.22
0	60559	5570.22	1150.22
0	60560	5570.22	1050.22
0	60561	5570.22	950.22
0	60562	5570.22	850.22
0	60563	5570.22	750.22
0	60967	5580.09	1350.09
0	61174	5580.19	2050.19
0	61238	5580.22	1250.22
0	61239	5580.22	1150.22
0	61240	5580.22	1050.22
0	61241	5580.22	950.22
0	61242	5580.22	850.22
0	61243	5580.22	1250.22
0	61244	5580.22	1150.22
0	61245	5580.22	1050.22
0	61246	5580.22	950.22
0	61247	5580.22	850.22
0	61248	5580.22	750.22
0	61451	5590.09	1350.09
0	62208	5590.19	2640.19
0	62209	5590.19	2630.19
0	62210	5590.19	2620.19
0	62211	5590.19	2610.19
0	62212	5590.19	2600.19
0	62213	5590.19	2590.19
0	62214	5590.19	2580.19
0	62215	5590.19	2570.19
0	62216	5590.19	2560.19
0	62217	5590.19	2550.19
0	62218	5590.19	2540.19
0	62219	5590.19	2530.19
0	62220	5590.19	2520.19
0	62221	5590.19	2510.19
0	62222	5590.19	2500.19
0	62223	5590.19	2490.19
0	62224	5590.19	2480.19
0	62225	5590.19	2470.19
0	62226	5590.19	2460.19
0	62227	5590.19	2450.19
0	62228	5590.19	2440.19
0	62229	5590.19	2430.19
0	62230	5590.19	2420.19
0	62231	5590.19	2410.19
0	62232	5590.19	2400.19
0	62233	5590.19	2390.19
0	62234	5590.19	2380.19
0	62235	5590.19	2370.19
0	62236	5590.19	2360.19
0	62237	5590.19	2350.19
0	62238	5590.19	2340.19
0	62239	5590.19	2330.19
0	62240	5590.19	2320.19
0	62241	5590.19	2310.19
0	62242	5590.19	2300.19
0	62243	5590.19	2290.19
0	62244	5590.19	2280.19
0	62245	5590.19	2270.19
0	62246	5590.19	2260.19
0	62247	5590.19	2250.19
0	62248	5590.19	2240.19
0	62249	5590.19	2230.19
0	62250	5590.19	2220.19
0	62251	5590.19	2210.19
0	62252	5590.19	2200.19
0	62253	5590.19	2190.19
0	62254	5590.19	2180.19
0	62255	5590.19	2170.19
0	62256	5590.19	2160.19
0	62257	5590.19	2150.19
0	62258	5590.19	2050.19
0	62472	5590.22	1250.22
0	62473	5590.22	1150.22
0	62474	5590.22	1050.22
0	62475	5590.22	950.22
0	62476	5590.22	850.22
0	62477	5590.22	1250.22
0	62478	5590.22	1150.22
0	62479	5590.22	1050.22
0	62480	5590.22	950.22
0	62481	5590.22	850.22
0	62482	5590.22	750.22
0	62986	5600.09	1350.09
0	63204	5600.19	2150.19
0	63205	5600.19	2050.19
0	63272	5600.22	1250.22
0	63273	5600.22	1150.22
0	63274	5600.22	1050.22
0	63275	5600.22	950.22
0	63276	5600.22	850.22
0	63277	5600.22	1250.22
0	63278	5600.22	1150.22
0	63279	5600.22	1050.22
0	63280	5600.22	950.22
0	63281	5600.22	850.22
0	63282	5600.22	750.22
0	63443	5610.09	1350.09
0	63661	5610.19	2150.19
0	63662	5610.19	2050.19
0	63729	5610.22	1250.22
0	63730	5610.22	1150.22
0	63731	5610.22	1050.22
0	63732	5610.22	950.22
0	63733	5610.22	850.22
0	63734	5610.22	1250.22
0	63735	5610.22	1150.22
0	63736	5610.22	1050.22
0	63737	5610.22	950.22
0	63738	5610.22	850.22
0	63739	5610.22	750.22
0	63909	5620.09	1450.09
0	63910	5620.09	1350.09
0	64406	5620.22	1250.22
0	64407	5620.22	1150.22
0	64408	5620.22	1050.22
0	64409	5620.22	950.22
0	64410	5620.22	850.22
0	64411	5620.22	1250.22
0	64412	5620.22	1150.22
0	64413	5620.22	1050.22
0	64414	5620.22	950.22
0	64415	5620.22	850.22
0	64416	5620.22	750.22
0	64571	5630.09	1450.09
0	64572	5630.09	1350.09
0	64828	5630.22	1250.22
0	64829	5630.22	1150.22
0	64830	5630.22	1050.22
0	64831	5630.22	950.22
0	64832	5630.22	850.22
0	64833	5630.22	1250.22
0	64834	5630.22	1150.22
0	64835	5630.22	1050.22
0	64836	5630.22	950.22
0	64837	5630.22	850.22
0	64838	5630.22	750.22
0	64993	5640.09	1450.09
0	64994	5640.09	1350.09
0	65250	5640.22	1250.22
0	65251	5640.22	1150.22
0	65252	5640.22	1050.22
0	65253	5640.22	950.22
0	65254	5640.22	850.22
0	65255	5640.22	1250.22
0	65256	5640.22	1150.22
0	65257	5640.22	1050.22
0	65258	5640.22	950.22
0	65259	5640.22	850.22
0	65260	5640.22	750.22
0	65405	5650.09	1450.09
0	65631	5650.19	2150.19
0	65705	5650.22	1350.22
0	65706	5650.22	1250.22
0	65707	5650.22	1150.22
0	65708	5650.22	1050.22
0	65709	5650.22	950.22
0	65710	5650.22	850.22
0	65711	5650.22	1350.22
0	65712	5650.22	1250.22
0	65713	5650.22	1150.22
0	65714	5650.22	1050.22
0	65715	5650.22	950.22
0	65716	5650.22	850.22
0	65717	5650.22	750.22
0	65890	5660.09	1450.09
0	66116	5660.19	2150.19
0	66190	5660.22	1350.22
0	66191	5660.22	1250.22
0	66192	5660.22	1150.22
0	66193	5660.22	1050.22
0	66194	5660.22	950.22
0	66195	5660.22	850.22
0	66196	5660.22	1350.22
0	66197	5660.22	1250.22
0	66198	5660.22	1150.22
0	66199	5660.22	1050.22
0	66200	5660.22	950.22
0	66201	5660.22	850.22
0	66202	5660.22	750.22
0	67719	5670.09	2200.09
0	67720	5670.09	2100.09
0	67721	5670.09	2190.09
0	67722	5670.09	2090.09
0	67723	5670.09	2180.09
0	67724	5670.09	2080.09
0	67725	5670.09	2170.09
0	67726	5670.09	2070.09
0	67727	5670.09	2160.09
0	67728	5670.09	2060.09
0	67729	5670.09	2150.09
0	67730	5670.09	2050.09
0	67731	5670.09	2140.09
0	67732	5670.09	2040.09
0	67733	5670.09	2720.09
0	67734	5670.09	2710.09
0	67735	5670.09	2700.09
0	67736	5670.09	2690.09
0	67737	5670.09	2680.09
0	67738	5670.09	2670.09
0	67739	5670.09	2660.09
0	67740	5670.09	2650.09
0	67741	5670.09	2640.09
0	67742	5670.09	2630.09
0	67743	5670.09	2620.09
0	67744	5670.09	2610.09
0	67745	5670.09	2600.09
0	67746	5670.09	2590.09
0	67747	5670.09	2580.09
0	67748	5670.09	2570.09
0	67749	5670.09	2560.09
0	67750	5670.09	2550.09
0	67751	5670.09	2540.09
0	67752	5670.09	2530.09
0	67753	5670.09	2520.09
0	67754	5670.09	2510.09
0	67755	5670.09	2500.09
0	67756	5670.09	2490.09
0	67757	5670.09	2480.09
0	67758	5670.09	2470.09
0	67759	5670.09	2460.09
0	67760	5670.09	2450.09
0	67761	5670.09	2440.09
0	67762	5670.09	2430.09
0	67763	5670.09	2420.09
0	67764	5670.09	2410.09
0	67765	5670.09	2400.09
0	67766	5670.09	2390.09
0	67767	5670.09	2380.09
0	67768	5670.09	2370.09
0	67769	5670.09	2360.09
0	67770	5670.09	2350.09
0	67771	5670.09	2340.09
0	67772	5670.09	2330.09
0	67773	5670.09	2320.09
0	67774	5670.09	2310.09
0	67775	5670.09	2300.09
0	67776	5670.09	2290.09
0	67777	5670.09	2280.09
0	67778	5670.09	2270.09
0	67779	5670.09	2260.09
0	67780	5670.09	2250.09
0	67781	5670.09	2240.09
0	67782	5670.09	2230.09
0	67783	5670.09	2130.09
0	67784	5670.09	2030.09
0	67785	5670.09	2220.09
0	67786	5670.09	2120.09
0	67787	5670.09	2020.09
0	67788	5670.09	2210.09
0	67789	5670.09	2110.09
0	67790	5670.09	2010.09
0	67791	5670.09	2000.09
0	67792	5670.09	1990.09
0	67793	5670.09	1980.09
0	67794	5670.09	1970.09
0	67795	5670.09	1960.09
0	67796	5670.09	1950.09
0	67797	5670.09	1940.09
0	67798	5670.09	1930.09
0	67799	5670.09	1920.09
0	67800	5670.09	1910.09
0	67801	5670.09	1900.09
0	67802	5670.09	1890.09
0	67803	5670.09	1880.09
0	67804	5670.09	1870.09
0	67805	5670.09	1860.09
0	67806	5670.09	1850.09
0	67807	5670.09	1840.09
0	67808	5670.09	1830.09
0	67809	5670.09	1820.09
0	67810	5670.09	1810.09
0	67811	5670.09	1800.09
0	67812	5670.09	1790.09
0	67813	5670.09	1780.09
0	67814	5670.09	1770.09
0	67815	5670.09	1760.09
0	67816	5670.09	1750.09
0	67817	5670.09	1740.09
0	67818	5670.09	1730.09
0	67819	5670.09	1720.09
0	67820	5670.09	1710.09
0	67821	5670.09	1700.09
0	67822	5670.09	1690.09
0	67823	5670.09	1680.09
0	67824	5670.09	1670.09
0	67825	5670.09	1660.09
0	67826	5670.09	1650.09
0	67827	5670.09	1640.09
0	67828	5670.09	1630.09
0	67829	5670.09	1620.09
0	67830	5670.09	1610.09
0	67831	5670.09	1600.09
0	67832	5670.09	1590.09
0	67833	5670.09	1580.09
0	67834	5670.09	1570.09
0	67835	5670.09	1560.09
0	67836	5670.09	1550.09
0	67837	5670.09	1540.09
0	67838	5670.09	1530.09
0	67839	5670.09	1520.09
0	67840	5670.09	1510.09
0	67841	5670.09	1450.09
0	69050	5670.19	2150.19
0	69051	5670.19	2150.19
0	69128	5670.22	1350.22
0	69129	5670.22	1250.22
0	69130	5670.22	1150.22
0	69131	5670.22	1050.22
0	69132	5670.22	950.22
0	69133	5670.22	850.22
0	69134	5670.22	1350.22
0	69135	5670.22	1250.22
0	69136	5670.22	1150.22
0	69137	5670.22	1050.22
0	69138	5670.22	950.22
0	69139	5670.22	850.22
0	69140	5670.22	750.22
0	69566	5680.09	1450.09
0	69793	5680.19	2150.19
0	69867	5680.22	1350.22
0	69868	5680.22	1250.22
0	69869	5680.22	1150.22
0	69870	5680.22	1050.22
0	69871	5680.22	950.22
0	69872	5680.22	850.22
0	69873	5680.22	1350.22
0	69874	5680.22	1250.22
0	69875	5680.22	1150.22
0	69876	5680.22	1050.22
0	69877	5680.22	950.22
0	69878	5680.22	850.22
0	69879	5680.22	750.22
0	70104	5690.09	1450.09
0	70881	5690.19	2740.19
0	70882	5690.19	2730.19
0	70883	5690.19	2720.19
0	70884	5690.19	2710.19
0	70885	5690.19	2700.19
0	70886	5690.19	2690.19
0	70887	5690.19	2680.19
0	70888	5690.19	2670.19
0	70889	5690.19	2660.19
0	70890	5690.19	2650.19
0	70891	5690.19	2640.19
0	70892	5690.19	2630.19
0	70893	5690.19	2620.19
0	70894	5690.19	2610.19
0	70895	5690.19	2600.19
0	70896	5690.19	2590.19
0	70897	5690.19	2580.19
0	70898	5690.19	2570.19
0	70899	5690.19	2560.19
0	70900	5690.19	2550.19
0	70901	5690.19	2540.19
0	70902	5690.19	2530.19
0	70903	5690.19	2520.19
0	70904	5690.19	2510.19
0	70905	5690.19	2500.19
0	70906	5690.19	2490.19
0	70907	5690.19	2480.19
0	70908	5690.19	2470.19
0	70909	5690.19	2460.19
0	70910	5690.19	2450.19
0	70911	5690.19	2440.19
0	70912	5690.19	2430.19
0	70913	5690.19	2420.19
0	70914	5690.19	2410.19
0	70915	5690.19	2400.19
0	70916	5690.19	2390.19
0	70917	5690.19	2380.19
0	70918	5690.19	2370.19
0	70919	5690.19	2360.19
0	70920	5690.19	2350.19
0	70921	5690.19	2340.19
0	70922	5690.19	2330.19
0	70923	5690.19	2320.19
0	70924	5690.19	2310.19
0	70925	5690.19	2300.19
0	70926	5690.19	2290.19
0	70927	5690.19	2280.19
0	70928	5690.19	2270.19
0	70929	5690.19	2260.19
0	70930	5690.19	2250.19
0	70931	5690.19	2150.19
0	71155	5690.22	1350.22
0	71156	5690.22	1250.22
0	71157	5690.22	1150.22
0	71158	5690.22	1050.22
0	71159	5690.22	950.22
0	71160	5690.22	850.22
0	71161	5690.22	1350.22
0	71162	5690.22	1250.22
0	71163	5690.22	1150.22
0	71164	5690.22	1050.22
0	71165	5690.22	950.22
0	71166	5690.22	850.22
0	71167	5690.22	750.22
0	71693	5700.09	1450.09
0	71929	5700.19	2250.19
0	71930	5700.19	2150.19
0	72007	5700.22	1350.22
0	72008	5700.22	1250.22
0	72009	5700.22	1150.22
0	72010	5700.22	1050.22
0	72011	5700.22	950.22
0	72012	5700.22	850.22
0	72013	5700.22	1350.22
0	72014	5700.22	1250.22
0	72015	5700.22	1150.22
0	72016	5700.22	1050.22
0	72017	5700.22	950.22
0	72018	5700.22	850.22
0	72019	5700.22	750.22
0	72202	5710.09	1450.09
0	72438	5710.19	2250.19
0	72439	5710.19	2150.19
0	72516	5710.22	1350.22
0	72517	5710.22	1250.22
0	72518	5710.22	1150.22
0	72519	5710.22	1050.22
0	72520	5710.22	950.22
0	72521	5710.22	850.22
0	72522	5710.22	1350.22
0	72523	5710.22	1250.22
0	72524	5710.22	1150.22
0	72525	5710.22	1050.22
0	72526	5710.22	950.22
0	72527	5710.22	850.22
0	72528	5710.22	750.22
0	72720	5720.09	1550.09
0	72721	5720.09	1450.09
0	73247	5720.22	1350.22
0	73248	5720.22	1250.22
0	73249	5720.22	1150.22
0	73250	5720.22	1050.22
0	73251	5720.22	950.22
0	73252	5720.22	850.22
0	73253	5720.22	1350.22
0	73254	5720.22	1250.22
0	73255	5720.22	1150.22
0	73256	5720.22	1050.22
0	73257	5720.22	950.22
0	73258	5720.22	850.22
0	73259	5720.22	750.22
0	73436	5730.09	1550.09
0	73437	5730.09	1450.09
0	73721	5730.22	1350.22
0	73722	5730.22	1250.22
0	73723	5730.22	1150.22
0	73724	5730.22	1050.22
0	73725	5730.22	950.22
0	73726	5730.22	850.22
0	73727	5730.22	1350.22
0	73728	5730.22	1250.22
0	73729	5730.22	1150.22
0	73730	5730.22	1050.22
0	73731	5730.22	950.22
0	73732	5730.22	850.22
0	73733	5730.22	750.22
0	73910	5740.09	1550.09
0	73911	5740.09	1450.09
0	74195	5740.22	1350.22
0	74196	5740.22	1250.22
0	74197	5740.22	1150.22
0	74198	5740.22	1050.22
0	74199	5740.22	950.22
0	74200	5740.22	850.22
0	74201	5740.22	1350.22
0	74202	5740.22	1250.22
0	74203	5740.22	1150.22
0	74204	5740.22	1050.22
0	74205	5740.22	950.22
0	74206	5740.22	850.22
0	74207	5740.22	750.22
0	74374	5750.09	1550.09
0	74618	5750.19	2250.19
0	74702	5750.22	1450.22
0	74703	5750.22	1350.22
0	74704	5750.22	1250.22
0	74705	5750.22	1150.22
0	74706	5750.22	1050.22
0	74707	5750.22	950.22
0	74708	5750.22	850.22
0	74709	5750.22	1450.22
0	74710	5750.22	1350.22
0	74711	5750.22	1250.22
0	74712	5750.22	1150.22
0	74713	5750.22	1050.22
0	74714	5750.22	950.22
0	74715	5750.22	850.22
0	74716	5750.22	750.22
0	74911	5760.09	1550.09
0	75155	5760.19	2250.19
0	75239	5760.22	1450.22
0	75240	5760.22	1350.22
0	75241	5760.22	1250.22
0	75242	5760.22	1150.22
0	75243	5760.22	1050.22
0	75244	5760.22	950.22
0	75245	5760.22	850.22
0	75246	5760.22	1450.22
0	75247	5760.22	1350.22
0	75248	5760.22	1250.22
0	75249	5760.22	1150.22
0	75250	5760.22	1050.22
0	75251	5760.22	950.22
0	75252	5760.22	850.22
0	75253	5760.22	750.22
0	76792	5770.09	2300.09
0	76793	5770.09	2200.09
0	76794	5770.09	2290.09
0	76795	5770.09	2190.09
0	76796	5770.09	2280.09
0	76797	5770.09	2180.09
0	76798	5770.09	2270.09
0	76799	5770.09	2170.09
0	76800	5770.09	2260.09
0	76801	5770.09	2160.09
0	76802	5770.09	2250.09
0	76803	5770.09	2150.09
0	76804	5770.09	2240.09
0	76805	5770.09	2140.09
0	76806	5770.09	2820.09
0	76807	5770.09	2810.09
0	76808	5770.09	2800.09
0	76809	5770.09	2790.09
0	76810	5770.09	2780.09
0	76811	5770.09	2770.09
0	76812	5770.09	2760.09
0	76813	5770.09	2750.09
0	76814	5770.09	2740.09
0	76815	5770.09	2730.09
0	76816	5770.09	2720.09
0	76817	5770.09	2710.09
0	76818	5770.09	2700.09
0	76819	5770.09	2690.09
0	76820	5770.09	2680.09
0	76821	5770.09	2670.09
0	76822	5770.09	2660.09
0	76823	5770.09	2650.09
0	76824	5770.09	2640.09
0	76825	5770.09	2630.09
0	76826	5770.09	2620.09
0	76827	5770.09	2610.09
0	76828	5770.09	2600.09
0	76829	5770.09	2590.09
0	76830	5770.09	2580.09
0	76831	5770.09	2570.09
0	76832	5770.09	2560.09
0	76833	5770.09	2550.09
0	76834	5770.09	2540.09
0	76835	5770.09	2530.09
0	76836	5770.09	2520.09
0	76837	5770.09	2510.09
0	76838	5770.09	2500.09
0	76839	5770.09	2490.09
0	76840	5770.09	2480.09
0	76841	5770.09	2470.09
0	76842	5770.09	2460.09
0	76843	5770.09	2450.09
0	76844	5770.09	2440.09
0	76845	5770.09	2430.09
0	76846	5770.09	2420.09
0	76847	5770.09	2410.09
0	76848	5770.09	2400.09
0	76849	5770.09	2390.09
0	76850	5770.09	2380.09
0	76851	5770.09	2370.09
0	76852	5770.09	2360.09
0	76853	5770.09	2350.09
0	76854	5770.09	2340.09
0	76855	5770.09	2330.09
0	76856	5770.09	2230.09
0	76857	5770.09	2130.09
0	76858	5770.09	2320.09
0	76859	5770.09	2220.09
0	76860	5770.09	2120.09
0	76861	5770.09	2310.09
0	76862	5770.09	2210.09
0	76863	5770.09	2110.09
0	76864	5770.09	2100.09
0	76865	5770.09	2090.09
0	76866	5770.09	2080.09
0	76867	5770.09	2070.09
0	76868	5770.09	2060.09
0	76869	5770.09	2050.09
0	76870	5770.09	2040.09
0	76871	5770.09	2030.09
0	76872	5770.09	2020.09
0	76873	5770.09	2010.09
0	76874	5770.09	2000.09
0	76875	5770.09	1990.09
0	76876	5770.09	1980.09
0	76877	5770.09	1970.09
0	76878	5770.09	1960.09
0	76879	5770.09	1950.09
0	76880	5770.09	1940.09
0	76881	5770.09	1930.09
0	76882	5770.09	1920.09
0	76883	5770.09	1910.09
0	76884	5770.09	1900.09
0	76885	5770.09	1890.09
0	76886	5770.09	1880.09
0	76887	5770.09	1870.09
0	76888	5770.09	1860.09
0	76889	5770.09	1850.09
0	76890	5770.09	1840.09
0	76891	5770.09	1830.09
0	76892	5770.09	1820.09
0	76893	5770.09	1810.09
0	76894	5770.09	1800.09
0	76895	5770.09	1790.09
0	76896	5770.09	1780.09
0	76897	5770.09	1770.09
0	76898	5770.09	1760.09
0	76899	5770.09	1750.09
0	76900	5770.09	1740.09
0	76901	5770.09	1730.09
0	76902	5770.09	1720.09
0	76903	5770.09	1710.09
0	76904	5770.09	1700.09
0	76905	5770.09	1690.09
0	76906	5770.09	1680.09
0	76907	5770.09	1670.09
0	76908	5770.09	1660.09
0	76909	5770.09	1650.09
0	76910	5770.09	1640.09
0	76911	5770.09	1630.09
0	76912	5770.09	1620.09
0	76913	5770.09	1610.09
0	76914	5770.09	1550.09
0	78140	5770.19	2250.19
0	78141	5770.19	2250.19
0	78228	5770.22	1450.22
0	78229	5770.22	1350.22
0	78230	5770.22	1250.22
0	78231	5770.22	1150.22
0	78232	5770.22	1050.22
0	78233	5770.22	950.22
0	78234	5770.22	850.22
0	78235	5770.22	1450.22
0	78236	5770.22	1350.22
0	78237	5770.22	1250.22
0	78238	5770.22	1150.22
0	78239	5770.22	1050.22
0	78240	5770.22	950.22
0	78241	5770.22	850.22
0	78242	5770.22	750.22
0	78690	5780.09	1550.09
0	78934	5780.19	2250.19
0	79018	5780.22	1450.22
0	79019	5780.22	1350.22
0	79020	5780.22	1250.22
0	79021	5780.22	1150.22
0	79022	5780.22	1050.22
0	79023	5780.22	950.22
0	79024	5780.22	850.22
0	79025	5780.22	1450.22
0	79026	5780.22	1350.22
0	79027	5780.22	1250.22
0	79028	5780.22	1150.22
0	79029	5780.22	1050.22
0	79030	5780.22	950.22
0	79031	5780.22	850.22
0	79032	5780.22	750.22
0	79279	5790.09	1550.09
0	80073	5790.19	2840.19
0	80074	5790.19	2830.19
0	80075	5790.19	2820.19
0	80076	5790.19	2810.19
0	80077	5790.19	2800.19
0	80078	5790.19	2790.19
0	80079	5790.19	2780.19
0	80080	5790.19	2770.19
0	80081	5790.19	2760.19
0	80082	5790.19	2750.19
0	80083	5790.19	2740.19
0	80084	5790.19	2730.19
0	80085	5790.19	2720.19
0	80086	5790.19	2710.19
0	80087	5790.19	2700.19
0	80088	5790.19	2690.19
0	80089	5790.19	2680.19
0	80090	5790.19	2670.19
0	80091	5790.19	2660.19
0	80092	5790.19	2650.19
0	80093	5790.19	2640.19
0	80094	5790.19	2630.19
0	80095	5790.19	2620.19
0	80096	5790.19	2610.19
0	80097	5790.19	2600.19
0	80098	5790.19	2590.19
0	80099	5790.19	2580.19
0	80100	5790.19	2570.19
0	80101	5790.19	2560.19
0	80102	5790.19	2550.19
0	80103	5790.19	2540.19
0	80104	5790.19	2530.19
0	80105	5790.19	2520.19
0	80106	5790.19	2510.19
0	80107	5790.19	2500.19
0	80108	5790.19	2490.19
0	80109	5790.19	2480.19
0	80110	5790.19	2470.19
0	80111	5790.19	2460.19
0	80112	5790.19	2450.19
0	80113	5790.19	2440.19
0	80114	5790.19	2430.19
0	80115	5790.19	2420.19
0	80116	5790.19	2410.19
0	80117	5790.19	2400.19
0	80118	5790.19	2390.19
0	80119	5790.19	2380.19
0	80120	5790.19	2370.19
0	80121	5790.19	2360.19
0	80122	5790.19	2350.19
0	80123	5790.19	2250.19
0	80357	5790.22	1450.22
0	80358	5790.22	1350.22
0	80359	5790.22	1250.22
0	80360	5790.22	1150.22
0	80361	5790.22	1050.22
0	80362	5790.22	950.22
0	80363	5790.22	850.22
0	80364	5790.22	1450.22
0	80365	5790.22	1350.22
0	80366	5790.22	1250.22
0	80367	5790.22	1150.22
0	80368	5790.22	1050.22
0	80369	5790.22	950.22
0	80370	5790.22	850.22
0	80371	5790.22	750.22
0	80917	5800.09	1550.09
0	81177	5800.19	2350.19
0	81178	5800.19	2250.19
0	81265	5800.22	1450.22
0	81266	5800.22	1350.22
0	81267	5800.22	1250.22
0	81268	5800.22	1150.22
0	81269	5800.22	1050.22
0	81270	5800.22	950.22
0	81271	5800.22	850.22
0	81272	5800.22	1450.22
0	81273	5800.22	1350.22
0	81274	5800.22	1250.22
0	81275	5800.22	1150.22
0	81276	5800.22	1050.22
0	81277	5800.22	950.22
0	81278	5800.22	850.22
0	81279	5800.22	750.22
0	81482	5810.09	1550.09
0	81742	5810.19	2350.19
0	81743	5810.19	2250.19
0	81830	5810.22	1450.22
0	81831	5810.22	1350.22
0	81832	5810.22	1250.22
0	81833	5810.22	1150.22
0	81834	5810.22	1050.22
0	81835	5810.22	950.22
0	81836	5810.22	850.22
0	81837	5810.22	1450.22
0	81838	5810.22	1350.22
0	81839	5810.22	1250.22
0	81840	5810.22	1150.22
0	81841	5810.22	1050.22
0	81842	5810.22	950.22
0	81843	5810.22	850.22
0	81844	5810.22	750.22
0	82300	5820.09	1650.09
0	82301	5820.09	1550.09
0	82679	5820.22	1450.22
0	82680	5820.22	1350.22
0	82681	5820.22	1250.22
0	82682	5820.22	1150.22
0	82683	5820.22	1050.22
0	82684	5820.22	950.22
0	82685	5820.22	850.22
0	82686	5820.22	1450.22
0	82687	5820.22	1350.22
0	82688	5820.22	1250.22
0	82689	5820.22	1150.22
0	82690	5820.22	1050.22
0	82691	5820.22	950.22
0	82692	5820.22	850.22
0	82693	5820.22	750.22
0	82890	5830.09	1650.09
0	82891	5830.09	1550.09
0	83209	5830.22	1450.22
0	83210	5830.22	1350.22
0	83211	5830.22	1250.22
0	83212	5830.22	1150.22
0	83213	5830.22	1050.22
0	83214	5830.22	950.22
0	83215	5830.22	850.22
0	83216	5830.22	1450.22
0	83217	5830.22	1350.22
0	83218	5830.22	1250.22
0	83219	5830.22	1150.22
0	83220	5830.22	1050.22
0	83221	5830.22	950.22
0	83222	5830.22	850.22
0	83223	5830.22	750.22
0	83420	5840.09	1650.09
0	83421	5840.09	1550.09
0	83739	5840.22	1450.22
0	83740	5840.22	1350.22
0	83741	5840.22	1250.22
0	83742	5840.22	1150.22
0	83743	5840.22	1050.22
0	83744	5840.22	950.22
0	83745	5840.22	850.22
0	83746	5840.22	1450.22
0	83747	5840.22	1350.22
0	83748	5840.22	1250.22
0	83749	5840.22	1150.22
0	83750	5840.22	1050.22
0	83751	5840.22	950.22
0	83752	5840.22	850.22
0	83753	5840.22	750.22
0	83940	5850.09	1650.09
0	84208	5850.19	2350.19
0	84302	5850.22	1550.22
0	84303	5850.22	1450.22
0	84304	5850.22	1350.22
0	84305	5850.22	1250.22
0	84306	5850.22	1150.22
0	84307	5850.22	1050.22
0	84308	5850.22	950.22
0	84309	5850.22	850.22
0	84310	5850.22	1550.22
0	84311	5850.22	1450.22
0	84312	5850.22	1350.22
0	84313	5850.22	1250.22
0	84314	5850.22	1150.22
0	84315	5850.22	1050.22
0	84316	5850.22	950.22
0	84317	5850.22	850.22
0	84318	5850.22	750.22
0	84533	5860.09	1650.09
0	84801	5860.19	2350.19
0	84895	5860.22	1550.22
0	84896	5860.22	1450.22
0	84897	5860.22	1350.22
0	84898	5860.22	1250.22
0	84899	5860.22	1150.22
0	84900	5860.22	1050.22
0	84901	5860.22	950.22
0	84902	5860.22	850.22
0	84903	5860.22	1550.22
0	84904	5860.22	1450.22
0	84905	5860.22	1350.22
0	84906	5860.22	1250.22
0	84907	5860.22	1150.22
0	84908	5860.22	1050.22
0	84909	5860.22	950.22
0	84910	5860.22	850.22
0	84911	5860.22	750.22
0	85850	5870.09	2300.09
0	85851	5870.09	2290.09
0	85852	5870.09	2280.09
0	85853	5870.09	2270.09
0	85854	5870.09	2260.09
0	85855	5870.09	2250.09
0	85856	5870.09	2240.09
0	85857	5870.09	2230.09
0	85858	5870.09	2220.09
0	85859	5870.09	2210.09
0	85860	5870.09	2200.09
0	85861	5870.09	2190.09
0	85862	5870.09	2180.09
0	85863	5870.09	2170.09
0	85864	5870.09	2160.09
0	85865	5870.09	2150.09
0	85866	5870.09	2140.09
0	85867	5870.09	2130.09
0	85868	5870.09	2120.09
0	85869	5870.09	2110.09
0	85870	5870.09	2100.09
0	85871	5870.09	2090.09
0	85872	5870.09	2080.09
0	85873	5870.09	2070.09
0	85874	5870.09	2060.09
0	85875	5870.09	2050.09
0	85876	5870.09	2040.09
0	85877	5870.09	2030.09
0	85878	5870.09	2020.09
0	85879	5870.09	2010.09
0	85880	5870.09	2000.09
0	85881	5870.09	1990.09
0	85882	5870.09	1980.09
0	85883	5870.09	1970.09
0	85884	5870.09	1960.09
0	85885	5870.09	1950.09
0	85886	5870.09	1940.09
0	85887	5870.09	1930.09
0	85888	5870.09	1920.09
0	85889	5870.09	1910.09
0	85890	5870.09	1900.09
0	85891	5870.09	1890.09
0	85892	5870.09	1880.09
0	85893	5870.09	1870.09
0	85894	5870.09	1860.09
0	85895	5870.09	1850.09
0	85896	5870.09	1840.09
0	85897	5870.09	1830.09
0	85898	5870.09	1820.09
0	85899	5870.09	1810.09
0	85900	5870.09	1800.09
0	85901	5870.09	1790.09
0	85902	5870.09	1780.09
0	85903	5870.09	1770.09
0	85904	5870.09	1760.09
0	85905	5870.09	1750.09
0	85906	5870.09	1740.09
0	85907	5870.09	1730.09
0	85908	5870.09	1720.09
0	85909	5870.09	1710.09
0	85910	5870.09	1650.09
0	86659	5870.19	2350.19
0	86753	5870.22	1550.22
0	86754	5870.22	1450.22
0	86755	5870.22	1350.22
0	86756	5870.22	1250.22
0	86757	5870.22	1150.22
0	86758	5870.22	1050.22
0	86759	5870.22	950.22
0	86760	5870.22	850.22
0	86761	5870.22	1550.22
0	86762	5870.22	1450.22
0	86763	5870.22	1350.22
0	86764	5870.22	1250.22
0	86765	5870.22	1150.22
0	86766	5870.22	1050.22
0	86767	5870.22	950.22
0	86768	5870.22	850.22
0	86769	5870.22	750.22
0	87106	5880.09	1650.09
0	87374	5880.19	2350.19
0	87468	5880.22	1550.22
0	87469	5880.22	1450.22
0	87470	5880.22	1350.22
0	87471	5880.22	1250.22
0	87472	5880.22	1150.22
0	87473	5880.22	1050.22
0	87474	5880.22	950.22
0	87475	5880.22	850.22
0	87476	5880.22	1550.22
0	87477	5880.22	1450.22
0	87478	5880.22	1350.22
0	87479	5880.22	1250.22
0	87480	5880.22	1150.22
0	87481	5880.22	1050.22
0	87482	5880.22	950.22
0	87483	5880.22	850.22
0	87484	5880.22	750.22
0	87751	5890.09	1650.09
0	88569	5890.19	2940.19
0	88570	5890.19	2930.19
0	88571	5890.19	2920.19
0	88572	5890.19	2910.19
0	88573	5890.19	2900.19
0	88574	5890.19	2890.19
0	88575	5890.19	2880.19
0	88576	5890.19	2870.19
0	88577	5890.19	2860.19
0	88578	5890.19	2850.19
0	88579	5890.19	2840.19
0	88580	5890.19	2830.19
0	88581	5890.19	2820.19
0	88582	5890.19	2810.19
0	88583	5890.19	2800.19
0	88584	5890.19	2790.19
0	88585	5890.19	2780.19
0	88586	5890.19	2770.19
0	88587	5890.19	2760.19
0	88588	5890.19	2750.19
0	88589	5890.19	2740.19
0	88590	5890.19	2730.19
0	88591	5890.19	2720.19
0	88592	5890.19	2710.19
0	88593	5890.19	2700.19
0	88594	5890.19	2690.19
0	88595	5890.19	2680.19
0	88596	5890.19	2670.19
0	88597	5890.19	2660.19
0	88598	5890.19	2650.19
0	88599	5890.19	2640.19
0	88600	5890.19	2630.19
0	88601	5890.19	2620.19
0	88602	5890.19	2610.19
0	88603	5890.19	2600.19
0	88604	5890.19	2590.19
0	88605	5890.19	2580.19
0	88606	5890.19	2570.19
0	88607	5890.19	2560.19
0	88608	5890.19	2550.19
0	88609	5890.19	2540.19
0	88610	5890.19	2530.19
0	88611	5890.19	2520.19
0	88612	5890.19	2510.19
0	88613	5890.19	2500.19
0	88614	5890.19	2490.19
0	88615	5890.19	2480.19
0	88616	5890.19	2470.19
0	88617	5890.19	2460.19
0	88618	5890.19	2450.19
0	88619	5890.19	2350.19
0	88863	5890.22	1550.22
0	88864	5890.22	1450.22
0	88865	5890.22	1350.22
0	88866	5890.22	1250.22
0	88867	5890.22	1150.22
0	88868	5890.22	1050.22
0	88869	5890.22	950.22
0	88870	5890.22	850.22
0	88871	5890.22	1550.22
0	88872	5890.22	1450.22
0	88873	5890.22	1350.22
0	88874	5890.22	1250.22
0	88875	5890.22	1150.22
0	88876	5890.22	1050.22
0	88877	5890.22	950.22
0	88878	5890.22	850.22
0	88879	5890.22	750.22
0	89445	5900.09	1650.09
0	89730	5900.19	2450.19
0	89731	5900.19	2350.19
0	89828	5900.22	1550.22
0	89829	5900.22	1450.22
0	89830	5900.22	1350.22
0	89831	5900.22	1250.22
0	89832	5900.22	1150.22
0	89833	5900.22	1050.22
0	89834	5900.22	950.22
0	89835	5900.22	850.22
0	89836	5900.22	1550.22
0	89837	5900.22	1450.22
0	89838	5900.22	1350.22
0	89839	5900.22	1250.22
0	89840	5900.22	1150.22
0	89841	5900.22	1050.22
0	89842	5900.22	950.22
0	89843	5900.22	850.22
0	89844	5900.22	750.22
0	90067	5910.09	1650.09
0	90352	5910.19	2450.19
0	90353	5910.19	2350.19
0	90450	5910.22	1550.22
0	90451	5910.22	1450.22
0	90452	5910.22	1350.22
0	90453	5910.22	1250.22
0	90454	5910.22	1150.22
0	90455	5910.22	1050.22
0	90456	5910.22	950.22
0	90457	5910.22	850.22
0	90458	5910.22	1550.22
0	90459	5910.22	1450.22
0	90460	5910.22	1350.22
0	90461	5910.22	1250.22
0	90462	5910.22	1150.22
0	90463	5910.22	1050.22
0	90464	5910.22	950.22
0	90465	5910.22	850.22
0	90466	5910.22	750.22
0	90942	5920.09	1750.09
0	90943	5920.09	1650.09
0	91296	5920.22	1550.22
0	91297	5920.22	1450.22
0	91298	5920.22	1350.22
0	91299	5920.22	1250.22
0	91300	5920.22	1150.22
0	91301	5920.22	1050.22
0	91302	5920.22	950.22
0	91303	5920.22	850.22
0	91304	5920.22	1550.22
0	91305	5920.22	1450.22
0	91306	5920.22	1350.22
0	91307	5920.22	1250.22
0	91308	5920.22	1150.22
0	91309	5920.22	1050.22
0	91310	5920.22	950.22
0	91311	5920.22	850.22
0	91312	5920.22	750.22
0	91529	5930.09	1750.09
0	91530	5930.09	1650.09
0	91883	5930.22	1550.22
0	91884	5930.22	1450.22
0	91885	5930.22	1350.22
0	91886	5930.22	1250.22
0	91887	5930.22	1150.22
0	91888	5930.22	1050.22
0	91889	5930.22	950.22
0	91890	5930.22	850.22
0	91891	5930.22	1550.22
0	91892	5930.22	1450.22
0	91893	5930.22	1350.22
0	91894	5930.22	1250.22
0	91895	5930.22	1150.22
0	91896	5930.22	1050.22
0	91897	5930.22	950.22
0	91898	5930.22	850.22
0	91899	5930.22	750.22
0	92116	5940.09	1750.09
0	92117	5940.09	1650.09
0	92470	5940.22	1550.22
0	92471	5940.22	1450.22
0	92472	5940.22	1350.22
0	92473	5940.22	1250.22
0	92474	5940.22	1150.22
0	92475	5940.22	1050.22
0	92476	5940.22	950.22
0	92477	5940.22	850.22
0	92478	5940.22	1550.22
0	92479	5940.22	1450.22
0	92480	5940.22	1350.22
0	92481	5940.22	1250.22
0	92482	5940.22	1150.22
0	92483	5940.22	1050.22
0	92484	5940.22	950.22
0	92485	5940.22	850.22
0	92486	5940.22	750.22
0	92693	5950.09	1750.09
0	92986	5950.19	2450.19
0	93090	5950.22	1650.22
0	93091	5950.22	1550.22
0	93092	5950.22	1450.22
0	93093	5950.22	1350.22
0	93094	5950.22	1250.22
0	93095	5950.22	1150.22
0	93096	5950.22	1050.22
0	93097	5950.22	950.22
0	93098	5950.22	850.22
0	93099	5950.22	1650.22
0	93100	5950.22	1550.22
0	93101	5950.22	1450.22
0	93102	5950.22	1350.22
0	93103	5950.22	1250.22
0	93104	5950.22	1150.22
0	93105	5950.22	1050.22
0	93106	5950.22	950.22
0	93107	5950.22	850.22
0	93108	5950.22	750.22
0	93343	5960.09	1750.09
0	93636	5960.19	2450.19
0	93740	5960.22	1650.22
0	93741	5960.22	1550.22
0	93742	5960.22	1450.22
0	93743	5960.22	1350.22
0	93744	5960.22	1250.22
0	93745	5960.22	1150.22
0	93746	5960.22	1050.22
0	93747	5960.22	950.22
0	93748	5960.22	850.22
0	93749	5960.22	1650.22
0	93750	5960.22	1550.22
0	93751	5960.22	1450.22
0	93752	5960.22	1350.22
0	93753	5960.22	1250.22
0	93754	5960.22	1150.22
0	93755	5960.22	1050.22
0	93756	5960.22	950.22
0	93757	5960.22	850.22
0	93758	5960.22	750.22
0	94655	5970.09	2400.09
0	94656	5970.09	2390.09
0	94657	5970.09	2380.09
0	94658	5970.09	2370.09
0	94659	5970.09	2360.09
0	94660	5970.09	2350.09
0	94661	5970.09	2340.09
0	94662	5970.09	2330.09
0	94663	5970.09	2320.09
0	94664	5970.09	2310.09
0	94665	5970.09	2300.09
0	94666	5970.09	2290.09
0	94667	5970.09	2280.09
0	94668	5970.09	2270.09
0	94669	5970.09	2260.09
0	94670	5970.09	2250.09
0	94671	5970.09	2240.09
0	94672	5970.09	2230.09
0	94673	5970.09	2220.09
0	94674	5970.09	2210.09
0	94675	5970.09	2200.09
0	94676	5970.09	2190.09
0	94677	5970.09	2180.09
0	94678	5970.09	2170.09
0	94679	5970.09	2160.09
0	94680	5970.09	2150.09
0	94681	5970.09	2140.09
0	94682	5970.09	2130.09
0	94683	5970.09	2120.09
0	94684	5970.09	2110.09
0	94685	5970.09	2100.09
0	94686	5970.09	2090.09
0	94687	5970.09	2080.09
0	94688	5970.09	2070.09
0	94689	5970.09	2060.09
0	94690	5970.09	2050.09
0	94691	5970.09	2040.09
0	94692	5970.09	2030.09
0	94693	5970.09	2020.09
0	94694	5970.09	2010.09
0	94695	5970.09	2000.09
0	94696	5970.09	1990.09
0	94697	5970.09	1980.09
0	94698	5970.09	1970.09
0	94699	5970.09	1960.09
0	94700	5970.09	1950.09
0	94701	5970.09	1940.09
0	94702	5970.09	1930.09
0	94703	5970.09	1920.09
0	94704	5970.09	1910.09
0	94705	5970.09	1900.09
0	94706	5970.09	1890.09
0	94707	5970.09	1880.09
0	94708	5970.09	1870.09
0	94709	5970.09	1860.09
0	94710	5970.09	1850.09
0	94711	5970.09	1840.09
0	94712	5970.09	1830.09
0	94713	5970.09	1820.09
0	94714	5970.09	1810.09
0	94715	5970.09	1750.09
0	95488	5970.19	2450.19
0	95592	5970.22	1650.22
0	95593	5970.22	1550.22
0	95594	5970.22	1450.22
0	95595	5970.22	1350.22
0	95596	5970.22	1250.22
0	95597	5970.22	1150.22
0	95598	5970.22	1050.22
0	95599	5970.22	950.22
0	95600	5970.22	850.22
0	95601	5970.22	1650.22
0	95602	5970.22	1550.22
0	95603	5970.22	1450.22
0	95604	5970.22	1350.22
0	95605	5970.22	1250.22
0	95606	5970.22	1150.22
0	95607	5970.22	1050.22
0	95608	5970.22	950.22
0	95609	5970.22	850.22
0	95610	5970.22	750.22
0	95967	5980.09	1750.09
0	96260	5980.19	2450.19
0	96364	5980.22	1650.22
0	96365	5980.22	1550.22
0	96366	5980.22	1450.22
0	96367	5980.22	1350.22
0	96368	5980.22	1250.22
0	96369	5980.22	1150.22
0	96370	5980.22	1050.22
0	96371	5980.22	950.22
0	96372	5980.22	850.22
0	96373	5980.22	1650.22
0	96374	5980.22	1550.22
0	96375	5980.22	1450.22
0	96376	5980.22	1350.22
0	96377	5980.22	1250.22
0	96378	5980.22	1150.22
0	96379	5980.22	1050.22
0	96380	5980.22	950.22
0	96381	5980.22	850.22
0	96382	5980.22	750.22
0	96669	5990.09	1750.09
0	97512	5990.19	3040.19
0	97513	5990.19	3030.19
0	97514	5990.19	3020.19
0	97515	5990.19	3010.19
0	97516	5990.19	3000.19
0	97517	5990.19	2990.19
0	97518	5990.19	2980.19
0	97519	5990.19	2970.19
0	97520	5990.19	2960.19
0	97521	5990.19	2950.19
0	97522	5990.19	2940.19
0	97523	5990.19	2930.19
0	97524	5990.19	2920.19
0	97525	5990.19	2910.19
0	97526	5990.19	2900.19
0	97527	5990.19	2890.19
0	97528	5990.19	2880.19
0	97529	5990.19	2870.19
0	97530	5990.19	2860.19
0	97531	5990.19	2850.19
0	97532	5990.19	2840.19
0	97533	5990.19	2830.19
0	97534	5990.19	2820.19
0	97535	5990.19	2810.19
0	97536	5990.19	2800.19
0	97537	5990.19	2790.19
0	97538	5990.19	2780.19
0	97539	5990.19	2770.19
0	97540	5990.19	2760.19
0	97541	5990.19	2750.19
0	97542	5990.19	2740.19
0	97543	5990.19	2730.19
0	97544	5990.19	2720.19
0	97545	5990.19	2710.19
0	97546	5990.19	2700.19
0	97547	5990.19	2690.19
0	97548	5990.19	2680.19
0	97549	5990.19	2670.19
0	97550	5990.19	2660.19
0	97551	5990.19	2650.19
0	97552	5990.19	2640.19
0	97553	5990.19	2630.19
0	97554	5990.19	2620.19
0	97555	5990.19	2610.19
0	97556	5990.19	2600.19
0	97557	5990.19	2590.19
0	97558	5990.19	2580.19
0	97559	5990.19	2570.19
0	97560	5990.19	2560.19
0	97561	5990.19	2550.19
0	97562	5990.19	2450.19
0	97816	5990.22	1650.22
0	97817	5990.22	1550.22
0	97818	5990.22	1450.22
0	97819	5990.22	1350.22
0	97820	5990.22	1250.22
0	97821	5990.22	1150.22
0	97822	5990.22	1050.22
0	97823	5990.22	950.22
0	97824	5990.22	850.22
0	97825	5990.22	1650.22
0	97826	5990.22	1550.22
0	97827	5990.22	1450.22
0	97828	5990.22	1350.22
0	97829	5990.22	1250.22
0	97830	5990.22	1150.22
0	97831	5990.22	1050.22
0	97832	5990.22	950.22
0	97833	5990.22	850.22
0	97834	5990.22	750.22
0	98420	6000.09	1750.09
0	98730	6000.19	2550.19
0	98731	6000.19	2450.19
0	98838	6000.22	1650.22
0	98839	6000.22	1550.22
0	98840	6000.22	1450.22
0	98841	6000.22	1350.22
0	98842	6000.22	1250.22
0	98843	6000.22	1150.22
0	98844	6000.22	1050.22
0	98845	6000.22	950.22
0	98846	6000.22	850.22
0	98847	6000.22	1650.22
0	98848	6000.22	1550.22
0	98849	6000.22	1450.22
0	98850	6000.22	1350.22
0	98851	6000.22	1250.22
0	98852	6000.22	1150.22
0	98853	6000.22	1050.22
0	98854	6000.22	950.22
0	98855	6000.22	850.22
0	98856	6000.22	750.22
0	99099	6010.09	1750.09
0	99409	6010.19	2550.19
0	99410	6010.19	2450.19
0	99517	6010.22	1650.22
0	99518	6010.22	1550.22
0	99519	6010.22	1450.22
0	99520	6010.22	1350.22
0	99521	6010.22	1250.22
0	99522	6010.22	1150.22
0	99523	6010.22	1050.22
0	99524	6010.22	950.22
0	99525	6010.22	850.22
0	99526	6010.22	1650.22
0	99527	6010.22	1550.22
0	99528	6010.22	1450.22
0	99529	6010.22	1350.22
0	99530	6010.22	1250.22
0	99531	6010.22	1150.22
0	99532	6010.22	1050.22
0	99533	6010.22	950.22
0	99534	6010.22	850.22
0	99535	6010.22	750.22
0	100031	6020.09	1850.09
0	100032	6020.09	1750.09
0	100420	6020.22	1650.22
[...]
0	308330	10260.08	4740.08
0	308331	10260.08	4640.08
0	308332	10260.08	4540.08
0	308333	10260.08	4440.08
0	308334	10260.08	4340.08
0	308335	10260.08	4240.08
0	308336	10260.08	4140.08
0	308337	10260.08	4040.08
0	308338	10260.08	3940.08
0	308339	10260.08	3840.08
0	308340	10260.08	3740.08
0	308341	10260.08	3640.08
0	308342	10260.08	3540.08
0	308343	10260.08	3440.08
0	308344	10260.08	5930.08
0	308345	10260.08	5830.08
0	308346	10260.08	5730.08
0	308347	10260.08	5630.08
0	308348	10260.08	5530.08
0	308349	10260.08	5430.08
0	308350	10260.08	5330.08
0	308351	10260.08	5230.08
0	308352	10260.08	5130.08
0	308353	10260.08	5030.08
0	308354	10260.08	4930.08
0	308355	10260.08	4830.08
0	308356	10260.08	4730.08
0	308357	10260.08	4630.08
0	308358	10260.08	4530.08
0	308359	10260.08	4430.08
0	308360	10260.08	4330.08
0	308361	10260.08	4230.08
0	308362	10260.08	4130.08
0	308363	10260.08	4030.08
0	308364	10260.08	3930.08
0	308365	10260.08	3830.08
0	308366	10260.08	3730.08
0	308367	10260.08	3630.08
0	308368	10260.08	3530.08
0	308369	10260.08	3430.08
0	308370	10260.08	5920.08
0	308371	10260.08	5820.08
0	308372	10260.08	5720.08
0	308373	10260.08	5620.08
0	308374	10260.08	5520.08
0	308375	10260.08	5420.08
0	308376	10260.08	5320.08
0	308377	10260.08	5220.08
0	308378	10260.08	5120.08
0	308379	10260.08	5020.08
0	308380	10260.08	4920.08
0	308381	10260.08	4820.08
0	308382	10260.08	4720.08
0	308383	10260.08	4620.08
0	308384	10260.08	4520.08
0	308385	10260.08	4420.08
0	308386	10260.08	4320.08
0	308387	10260.08	4220.08
0	308388	10260.08	4120.08
0	308389	10260.08	4020.08
0	308390	10260.08	3920.08
0	308391	10260.08	3820.08
0	308392	10260.08	3720.08
0	308393	10260.08	3620.08
0	308394	10260.08	3520.08
0	308395	10260.08	3420.08
0	308396	10260.08	5910.08
0	308397	10260.08	5810.08
0	308398	10260.08	5710.08
0	308399	10260.08	5610.08
0	308400	10260.08	5510.08
0	308401	10260.08	5410.08
0	308402	10260.08	5310.08
0	308403	10260.08	5210.08
0	308404	10260.08	5110.08
0	308405	10260.08	5010.08
0	308406	10260.08	4910.08
0	308407	10260.08	4810.08
0	308408	10260.08	4710.08
0	308409	10260.08	4610.08
0	308410	10260.08	4510.08
0	308411	10260.08	4410.08
0	308412	10260.08	4310.08
0	308413	10260.08	4210.08
0	308414	10260.08	4110.08
0	308415	10260.08	4010.08
0	308416	10260.08	3910.08
0	308417	10260.08	3810.08
0	308418	10260.08	3710.08
0	308419	10260.08	3610.08
0	308420	10260.08	3510.08
0	308421	10260.08	3410.08
0	308422	10260.08	3400.08
0	308423	10260.08	3390.08
0	308424	10260.08	3380.08
0	308425	10260.08	3370.08
0	308426	10260.08	3360.08
0	308427	10260.08	3350.08
0	308428	10260.08	3340.08
0	308429	10260.08	3330.08
0	308430	10260.08	3320.08
0	308431	10260.08	3310.08
0	308432	10260.08	3300.08
0	308433	10260.08	3290.08
0	308434	10260.08	3280.08
0	308442	10260.09	1750.09
0	308443	10260.09	1650.09
0	308444	10260.09	1550.09
0	308491	10270.09	1750.09
0	308492	10270.09	1650.09
0	308493	10270.09	1550.09
0	308532	10280.09	1750.09
0	308533	10280.09	1650.09
0	308567	10290.09	1750.09
0	308568	10290.09	1650.09
0	308602	10300.09	1750.09
0	308603	10300.09	1650.09
0	308637	10310.09	1750.09
0	308638	10310.09	1650.09
0	308672	10320.09	1750.09
0	308673	10320.09	1650.09
0	308715	10330.09	1850.09
0	308716	10330.09	1750.09
0	308717	10330.09	1650.09
0	308764	10340.09	1850.09
0	308765	10340.09	1750.09
0	308766	10340.09	1650.09
0	308813	10350.09	1850.09
0	308814	10350.09	1750.09
0	308815	10350.09	1650.09
0	310363	10360.08	6000.08
0	310364	10360.08	5900.08
0	310365	10360.08	5800.08
0	310366	10360.08	5700.08
0	310367	10360.08	5600.08
0	310368	10360.08	5500.08
0	310369	10360.08	5400.08
0	310370	10360.08	5300.08
0	310371	10360.08	5200.08
0	310372	10360.08	5100.08
0	310373	10360.08	5000.08
0	310374	10360.08	4900.08
0	310375	10360.08	4800.08
0	310376	10360.08	4700.08
0	310377	10360.08	4600.08
0	310378	10360.08	4500.08
0	310379	10360.08	4400.08
0	310380	10360.08	4300.08
0	310381	10360.08	4200.08
0	310382	10360.08	4100.08
0	310383	10360.08	4000.08
0	310384	10360.08	3900.08
0	310385	10360.08	3800.08
0	310386	10360.08	3700.08
0	310387	10360.08	3600.08
0	310388	10360.08	5990.08
0	310389	10360.08	5890.08
0	310390	10360.08	5790.08
0	310391	10360.08	5690.08
0	310392	10360.08	5590.08
0	310393	10360.08	5490.08
0	310394	10360.08	5390.08
0	310395	10360.08	5290.08
0	310396	10360.08	5190.08
0	310397	10360.08	5090.08
0	310398	10360.08	4990.08
0	310399	10360.08	4890.08
0	310400	10360.08	4790.08
0	310401	10360.08	4690.08
0	310402	10360.08	4590.08
0	310403	10360.08	4490.08
0	310404	10360.08	4390.08
0	310405	10360.08	4290.08
0	310406	10360.08	4190.08
0	310407	10360.08	4090.08
0	310408	10360.08	3990.08
0	310409	10360.08	3890.08
0	310410	10360.08	3790.08
0	310411	10360.08	3690.08
0	310412	10360.08	3590.08
0	310413	10360.08	5980.08
0	310414	10360.08	5880.08
0	310415	10360.08	5780.08
0	310416	10360.08	5680.08
0	310417	10360.08	5580.08
0	310418	10360.08	5480.08
0	310419	10360.08	5380.08
0	310420	10360.08	5280.08
0	310421	10360.08	5180.08
0	310422	10360.08	5080.08
0	310423	10360.08	4980.08
0	310424	10360.08	4880.08
0	310425	10360.08	4780.08
0	310426	10360.08	4680.08
0	310427	10360.08	4580.08
0	310428	10360.08	4480.08
0	310429	10360.08	4380.08
0	310430	10360.08	4280.08
0	310431	10360.08	4180.08
0	310432	10360.08	4080.08
0	310433	10360.08	3980.08
0	310434	10360.08	3880.08
0	310435	10360.08	3780.08
0	310436	10360.08	3680.08
0	310437	10360.08	3580.08
0	310438	10360.08	5970.08
0	310439	10360.08	5870.08
0	310440	10360.08	5770.08
0	310441	10360.08	5670.08
0	310442	10360.08	5570.08
0	310443	10360.08	5470.08
0	310444	10360.08	5370.08
0	310445	10360.08	5270.08
0	310446	10360.08	5170.08
0	310447	10360.08	5070.08
0	310448	10360.08	4970.08
0	310449	10360.08	4870.08
0	310450	10360.08	4770.08
0	310451	10360.08	4670.08
0	310452	10360.08	4570.08
0	310453	10360.08	4470.08
0	310454	10360.08	4370.08
0	310455	10360.08	4270.08
0	310456	10360.08	4170.08
0	310457	10360.08	4070.08
0	310458	10360.08	3970.08
0	310459	10360.08	3870.08
0	310460	10360.08	3770.08
0	310461	10360.08	3670.08
0	310462	10360.08	3570.08
0	310463	10360.08	6060.08
0	310464	10360.08	5960.08
0	310465	10360.08	5860.08
0	310466	10360.08	5760.08
0	310467	10360.08	5660.08
0	310468	10360.08	5560.08
0	310469	10360.08	5460.08
0	310470	10360.08	5360.08
0	310471	10360.08	5260.08
0	310472	10360.08	5160.08
0	310473	10360.08	5060.08
0	310474	10360.08	4960.08
0	310475	10360.08	4860.08
0	310476	10360.08	4760.08
0	310477	10360.08	4660.08
0	310478	10360.08	4560.08
0	310479	10360.08	4460.08
0	310480	10360.08	4360.08
0	310481	10360.08	4260.08
0	310482	10360.08	4160.08
0	310483	10360.08	4060.08
0	310484	10360.08	3960.08
0	310485	10360.08	3860.08
0	310486	10360.08	3760.08
0	310487	10360.08	3660.08
0	310488	10360.08	3560.08
0	310489	10360.08	4250.08
0	310490	10360.08	4150.08
0	310491	10360.08	4050.08
0	310492	10360.08	3950.08
0	310493	10360.08	3850.08
0	310494	10360.08	3750.08
0	310495	10360.08	3650.08
0	310496	10360.08	3550.08
0	310497	10360.08	6040.08
0	310498	10360.08	5940.08
0	310499	10360.08	5840.08
0	310500	10360.08	5740.08
0	310501	10360.08	5640.08
0	310502	10360.08	5540.08
0	310503	10360.08	5440.08
0	310504	10360.08	5340.08
0	310505	10360.08	5240.08
0	310506	10360.08	5140.08
0	310507	10360.08	5040.08
0	310508	10360.08	4940.08
0	310509	10360.08	4840.08
0	310510	10360.08	4740.08
0	310511	10360.08	4640.08
0	310512	10360.08	4540.08
0	310513	10360.08	4440.08
0	310514	10360.08	4340.08
0	310515	10360.08	4240.08
0	310516	10360.08	4140.08
0	310517	10360.08	4040.08
0	310518	10360.08	3940.08
0	310519	10360.08	3840.08
0	310520	10360.08	3740.08
0	310521	10360.08	3640.08
0	310522	10360.08	3540.08
0	310523	10360.08	6030.08
0	310524	10360.08	5930.08
0	310525	10360.08	5830.08
0	310526	10360.08	5730.08
0	310527	10360.08	5630.08
0	310528	10360.08	5530.08
0	310529	10360.08	5430.08
0	310530	10360.08	5330.08
0	310531	10360.08	5230.08
0	310532	10360.08	5130.08
0	310533	10360.08	5030.08
0	310534	10360.08	4930.08
0	310535	10360.08	4830.08
0	310536	10360.08	4730.08
0	310537	10360.08	4630.08
0	310538	10360.08	4530.08
0	310539	10360.08	4430.08
0	310540	10360.08	4330.08
0	310541	10360.08	4230.08
0	310542	10360.08	4130.08
0	310543	10360.08	4030.08
0	310544	10360.08	3930.08
0	310545	10360.08	3830.08
0	310546	10360.08	3730.08
0	310547	10360.08	3630.08
0	310548	10360.08	3530.08
0	310549	10360.08	6020.08
0	310550	10360.08	5920.08
0	310551	10360.08	5820.08
0	310552	10360.08	5720.08
0	310553	10360.08	5620.08
0	310554	10360.08	5520.08
0	310555	10360.08	5420.08
0	310556	10360.08	5320.08
0	310557	10360.08	5220.08
0	310558	10360.08	5120.08
0	310559	10360.08	5020.08
0	310560	10360.08	4920.08
0	310561	10360.08	4820.08
0	310562	10360.08	4720.08
0	310563	10360.08	4620.08
0	310564	10360.08	4520.08
0	310565	10360.08	4420.08
0	310566	10360.08	4320.08
0	310567	10360.08	4220.08
0	310568	10360.08	4120.08
0	310569	10360.08	4020.08
0	310570	10360.08	3920.08
0	310571	10360.08	3820.08
0	310572	10360.08	3720.08
0	310573	10360.08	3620.08
0	310574	10360.08	3520.08
0	310575	10360.08	6010.08
0	310576	10360.08	5910.08
0	310577	10360.08	5810.08
0	310578	10360.08	5710.08
0	310579	10360.08	5610.08
0	310580	10360.08	5510.08
0	310581	10360.08	5410.08
0	310582	10360.08	5310.08
0	310583	10360.08	5210.08
0	310584	10360.08	5110.08
0	310585	10360.08	5010.08
0	310586	10360.08	4910.08
0	310587	10360.08	4810.08
0	310588	10360.08	4710.08
0	310589	10360.08	4610.08
0	310590	10360.08	4510.08
0	310591	10360.08	4410.08
0	310592	10360.08	4310.08
0	310593	10360.08	4210.08
0	310594	10360.08	4110.08
0	310595	10360.08	4010.08
0	310596	10360.08	3910.08
0	310597	10360.08	3810.08
0	310598	10360.08	3710.08
0	310599	10360.08	3610.08
0	310600	10360.08	3510.08
0	310601	10360.08	3500.08
0	310602	10360.08	3490.08
0	310603	10360.08	3480.08
0	310604	10360.08	3470.08
0	310605	10360.08	3460.08
0	310606	10360.08	3450.08
0	310607	10360.08	3440.08
0	310608	10360.08	3430.08
0	310609	10360.08	3420.08
0	310610	10360.08	3410.08
0	310611	10360.08	3400.08
0	310612	10360.08	3390.08
0	310613	10360.08	3380.08
0	310621	10360.09	1850.09
0	310622	10360.09	1750.09
0	310623	10360.09	1650.09
0	310670	10370.09	1850.09
0	310671	10370.09	1750.09
0	310672	10370.09	1650.09
0	310711	10380.09	1850.09
0	310712	10380.09	1750.09
0	310746	10390.09	1850.09
0	310747	10390.09	1750.09
0	310781	10400.09	1850.09
0	310782	10400.09	1750.09
0	310816	10410.09	1850.09
0	310817	10410.09	1750.09
0	310851	10420.09	1850.09
0	310852	10420.09	1750.09
0	310894	10430.09	1950.09
0	310895	10430.09	1850.09
0	310896	10430.09	1750.09
0	310943	10440.09	1950.09
0	310944	10440.09	1850.09
0	310945	10440.09	1750.09
0	310992	10450.09	1950.09
0	310993	10450.09	1850.09
0	310994	10450.09	1750.09
0	312542	10460.08	6100.08
0	312543	10460.08	6000.08
0	312544	10460.08	5900.08
0	312545	10460.08	5800.08
0	312546	10460.08	5700.08
0	312547	10460.08	5600.08
0	312548	10460.08	5500.08
0	312549	10460.08	5400.08
0	312550	10460.08	5300.08
0	312551	10460.08	5200.08
0	312552	10460.08	5100.08
0	312553	10460.08	5000.08
0	312554	10460.08	4900.08
0	312555	10460.08	4800.08
0	312556	10460.08	4700.08
0	312557	10460.08	4600.08
0	312558	10460.08	4500.08
0	312559	10460.08	4400.08
0	312560	10460.08	4300.08
0	312561	10460.08	4200.08
0	312562	10460.08	4100.08
0	312563	10460.08	4000.08
0	312564	10460.08	3900.08
0	312565	10460.08	3800.08
0	312566	10460.08	3700.08
0	312567	10460.08	6090.08
0	312568	10460.08	5990.08
0	312569	10460.08	5890.08
0	312570	10460.08	5790.08
0	312571	10460.08	5690.08
0	312572	10460.08	5590.08
0	312573	10460.08	5490.08
0	312574	10460.08	5390.08
0	312575	10460.08	5290.08
0	312576	10460.08	5190.08
0	312577	10460.08	5090.08
0	312578	10460.08	4990.08
0	312579	10460.08	4890.08
0	312580	10460.08	4790.08
0	312581	10460.08	4690.08
0	312582	10460.08	4590.08
0	312583	10460.08	4490.08
0	312584	10460.08	4390.08
0	312585	10460.08	4290.08
0	312586	10460.08	4190.08
0	312587	10460.08	4090.08
0	312588	10460.08	3990.08
0	312589	10460.08	3890.08
0	312590	10460.08	3790.08
0	312591	10460.08	3690.08
0	312592	10460.08	6080.08
0	312593	10460.08	5980.08
0	312594	10460.08	5880.08
0	312595	10460.08	5780.08
0	312596	10460.08	5680.08
0	312597	10460.08	5580.08
0	312598	10460.08	5480.08
0	312599	10460.08	5380.08
0	312600	10460.08	5280.08
0	312601	10460.08	5180.08
0	312602	10460.08	5080.08
0	312603	10460.08	4980.08
0	312604	10460.08	4880.08
0	312605	10460.08	4780.08
0	312606	10460.08	4680.08
0	312607	10460.08	4580.08
0	312608	10460.08	4480.08
0	312609	10460.08	4380.08
0	312610	10460.08	4280.08
0	312611	10460.08	4180.08
0	312612	10460.08	4080.08
0	312613	10460.08	3980.08
0	312614	10460.08	3880.08
0	312615	10460.08	3780.08
0	312616	10460.08	3680.08
0	312617	10460.08	6070.08
0	312618	10460.08	5970.08
0	312619	10460.08	5870.08
0	312620	10460.08	5770.08
0	312621	10460.08	5670.08
0	312622	10460.08	5570.08
0	312623	10460.08	5470.08
0	312624	10460.08	5370.08
0	312625	10460.08	5270.08
0	312626	10460.08	5170.08
0	312627	10460.08	5070.08
0	312628	10460.08	4970.08
0	312629	10460.08	4870.08
0	312630	10460.08	4770.08
0	312631	10460.08	4670.08
0	312632	10460.08	4570.08
0	312633	10460.08	4470.08
0	312634	10460.08	4370.08
0	312635	10460.08	4270.08
0	312636	10460.08	4170.08
0	312637	10460.08	4070.08
0	312638	10460.08	3970.08
0	312639	10460.08	3870.08
0	312640	10460.08	3770.08
0	312641	10460.08	3670.08
0	312642	10460.08	6160.08
0	312643	10460.08	6060.08
0	312644	10460.08	5960.08
0	312645	10460.08	5860.08
0	312646	10460.08	5760.08
0	312647	10460.08	5660.08
0	312648	10460.08	5560.08
0	312649	10460.08	5460.08
0	312650	10460.08	5360.08
0	312651	10460.08	5260.08
0	312652	10460.08	5160.08
0	312653	10460.08	5060.08
0	312654	10460.08	4960.08
0	312655	10460.08	4860.08
0	312656	10460.08	4760.08
0	312657	10460.08	4660.08
0	312658	10460.08	4560.08
0	312659	10460.08	4460.08
0	312660	10460.08	4360.08
0	312661	10460.08	4260.08
0	312662	10460.08	4160.08
0	312663	10460.08	4060.08
0	312664	10460.08	3960.08
0	312665	10460.08	3860.08
0	312666	10460.08	3760.08
0	312667	10460.08	3660.08
0	312668	10460.08	4350.08
0	312669	10460.08	4250.08
0	312670	10460.08	4150.08
0	312671	10460.08	4050.08
0	312672	10460.08	3950.08
0	312673	10460.08	3850.08
0	312674	10460.08	3750.08
0	312675	10460.08	3650.08
0	312676	10460.08	6140.08
0	312677	10460.08	6040.08
0	312678	10460.08	5940.08
0	312679	10460.08	5840.08
0	312680	10460.08	5740.08
0	312681	10460.08	5640.08
0	312682	10460.08	5540.08
0	312683	10460.08	5440.08
0	312684	10460.08	5340.08
0	312685	10460.08	5240.08
0	312686	10460.08	5140.08
0	312687	10460.08	5040.08
0	312688	10460.08	4940.08
0	312689	10460.08	4840.08
0	312690	10460.08	4740.08
0	312691	10460.08	4640.08
0	312692	10460.08	4540.08
0	312693	10460.08	4440.08
0	312694	10460.08	4340.08
0	312695	10460.08	4240.08
0	312696	10460.08	4140.08
0	312697	10460.08	4040.08
0	312698	10460.08	3940.08
0	312699	10460.08	3840.08
0	312700	10460.08	3740.08
0	312701	10460.08	3640.08
0	312702	10460.08	6130.08
0	312703	10460.08	6030.08
0	312704	10460.08	5930.08
0	312705	10460.08	5830.08
0	312706	10460.08	5730.08
0	312707	10460.08	5630.08
0	312708	10460.08	5530.08
0	312709	10460.08	5430.08
0	312710	10460.08	5330.08
0	312711	10460.08	5230.08
0	312712	10460.08	5130.08
0	312713	10460.08	5030.08
0	312714	10460.08	4930.08
0	312715	10460.08	4830.08
0	312716	10460.08	4730.08
0	312717	10460.08	4630.08
0	312718	10460.08	4530.08
0	312719	10460.08	4430.08
0	312720	10460.08	4330.08
0	312721	10460.08	4230.08
0	312722	10460.08	4130.08
0	312723	10460.08	4030.08
0	312724	10460.08	3930.08
0	312725	10460.08	3830.08
0	312726	10460.08	3730.08
0	312727	10460.08	3630.08
0	312728	10460.08	6120.08
0	312729	10460.08	6020.08
0	312730	10460.08	5920.08
0	312731	10460.08	5820.08
0	312732	10460.08	5720.08
0	312733	10460.08	5620.08
0	312734	10460.08	5520.08
0	312735	10460.08	5420.08
0	312736	10460.08	5320.08
0	312737	10460.08	5220.08
0	312738	10460.08	5120.08
0	312739	10460.08	5020.08
0	312740	10460.08	4920.08
0	312741	10460.08	4820.08
0	312742	10460.08	4720.08
0	312743	10460.08	4620.08
0	312744	10460.08	4520.08
0	312745	10460.08	4420.08
0	312746	10460.08	4320.08
0	312747	10460.08	4220.08
0	312748	10460.08	4120.08
0	312749	10460.08	4020.08
0	312750	10460.08	3920.08
0	312751	10460.08	3820.08
0	312752	10460.08	3720.08
0	312753	10460.08	3620.08
0	312754	10460.08	6110.08
0	312755	10460.08	6010.08
0	312756	10460.08	5910.08
0	312757	10460.08	5810.08
0	312758	10460.08	5710.08
0	312759	10460.08	5610.08
0	312760	10460.08	5510.08
0	312761	10460.08	5410.08
0	312762	10460.08	5310.08
0	312763	10460.08	5210.08
0	312764	10460.08	5110.08
0	312765	10460.08	5010.08
0	312766	10460.08	4910.08
0	312767	10460.08	4810.08
0	312768	10460.08	4710.08
0	312769	10460.08	4610.08
0	312770	10460.08	4510.08
0	312771	10460.08	4410.08
0	312772	10460.08	4310.08
0	312773	10460.08	4210.08
0	312774	10460.08	4110.08
0	312775	10460.08	4010.08
0	312776	10460.08	3910.08
0	312777	10460.08	3810.08
0	312778	10460.08	3710.08
0	312779	10460.08	3610.08
0	312780	10460.08	3600.08
0	312781	10460.08	3590.08
0	312782	10460.08	3580.08
0	312783	10460.08	3570.08
0	312784	10460.08	3560.08
0	312785	10460.08	3550.08
0	312786	10460.08	3540.08
0	312787	10460.08	3530.08
0	312788	10460.08	3520.08
0	312789	10460.08	3510.08
0	312790	10460.08	3500.08
0	312791	10460.08	3490.08
0	312792	10460.08	3480.08
0	313553	10460.09	1950.09
0	313554	10460.09	1850.09
0	313555	10460.09	1750.09
0	315362	10470.09	1950.09
0	315363	10470.09	1850.09
0	315364	10470.09	1750.09
0	315403	10480.09	1950.09
0	315404	10480.09	1850.09
0	315438	10490.09	1950.09
0	315439	10490.09	1850.09
0	315473	10500.09	1950.09
0	315474	10500.09	1850.09
0	315508	10510.09	1950.09
0	315509	10510.09	1850.09
0	315543	10520.09	1950.09
0	315544	10520.09	1850.09
0	315586	10530.09	2050.09
0	315587	10530.09	1950.09
0	315588	10530.09	1850.09
0	315635	10540.09	2050.09
0	315636	10540.09	1950.09
0	315637	10540.09	1850.09
0	315684	10550.09	2050.09
0	315685	10550.09	1950.09
0	315686	10550.09	1850.09
0	315984	10560.09	2050.09
0	315985	10560.09	1950.09
0	315986	10560.09	1850.09
0	316035	10570.09	2050.09
0	316036	10570.09	1950.09
0	316037	10570.09	1850.09
0	316077	10580.09	2050.09
0	316078	10580.09	1950.09
0	316113	10590.09	2050.09
0	316114	10590.09	1950.09
0	316149	10600.09	2050.09
0	316150	10600.09	1950.09
0	316185	10610.09	2050.09
0	316186	10610.09	1950.09
0	316221	10620.09	2050.09
0	316222	10620.09	1950.09
0	316265	10630.09	2150.09
0	316266	10630.09	2050.09
0	316267	10630.09	1950.09
0	316315	10640.09	2150.09
0	316316	10640.09	2050.09
0	316317	10640.09	1950.09
0	316365	10650.09	2150.09
0	316366	10650.09	2050.09
0	316367	10650.09	1950.09
0	316415	10660.09	2150.09
0	316416	10660.09	2050.09
0	316417	10660.09	1950.09
0	316465	10670.09	2150.09
0	316466	10670.09	2050.09
0	316467	10670.09	1950.09
0	316507	10680.09	2150.09
0	316508	10680.09	2050.09
0	316543	10690.09	2150.09
0	316544	10690.09	2050.09
0	316579	10700.09	2150.09
0	316580	10700.09	2050.09
0	316615	10710.09	2150.09
0	316616	10710.09	2050.09
0	316651	10720.09	2150.09
0	316652	10720.09	2050.09
0	316695	10730.09	2250.09
0	316696	10730.09	2150.09
0	316697	10730.09	2050.09
0	316745	10740.09	2250.09
0	316746	10740.09	2150.09
0	316747	10740.09	2050.09
0	316795	10750.09	2250.09
0	316796	10750.09	2150.09
0	316797	10750.09	2050.09
0	316845	10760.09	2250.09
0	316846	10760.09	2150.09
0	316847	10760.09	2050.09
0	316895	10770.09	2250.09
0	316896	10770.09	2150.09
0	316897	10770.09	2050.09
0	316937	10780.09	2250.09
0	316938	10780.09	2150.09
0	316973	10790.09	2250.09
0	316974	10790.09	2150.09
0	317009	10800.09	2250.09
0	317010	10800.09	2150.09
0	317045	10810.09	2250.09
0	317046	10810.09	2150.09
0	317081	10820.09	2250.09
0	317082	10820.09	2150.09
0	317125	10830.09	2350.09
0	317126	10830.09	2250.09
0	317127	10830.09	2150.09
0	317175	10840.09	2350.09
0	317176	10840.09	2250.09
0	317177	10840.09	2150.09
0	317225	10850.09	2350.09
0	317226	10850.09	2250.09
0	317227	10850.09	2150.09
0	317275	10860.09	2350.09
0	317276	10860.09	2250.09
0	317277	10860.09	2150.09
0	317325	10870.09	2350.09
0	317326	10870.09	2250.09
0	317327	10870.09	2150.09
0	317367	10880.09	2350.09
0	317368	10880.09	2250.09
0	317403	10890.09	2350.09
0	317404	10890.09	2250.09
0	317439	10900.09	2350.09
0	317440	10900.09	2250.09

