version 2
run General-0-20250128-22:22:57-132852
attr configname General
attr datetime 20250128-22:22:57
attr experiment General
attr inifile shaw_exist.ini
attr iterationvars ""
attr iterationvarsf ""
attr measurement ""
attr network src.dtnsim
attr processid 132852
attr repetition 0
attr replication #0
attr resultdir results
attr runnumber 0
attr seedset 0
param dtnsim.central.contactsFile "\"contactPlan/Contacts.txt\""
param dtnsim.central.contactsFile_A "\"contactPlan/Contacts_A.txt\""
param dtnsim.central.contactsFile_B "\"contactPlan/Contacts_B.txt\""
param dtnsim.central.contactIdsToDelete "\"7 9 15 16 18 21 24 25 45 50 53 56 59 66 68 77 79 81 91 94 95 96 97 102 106 111 115 122 127 128 129 130 131 132 134 135 136 137 139 148 150 152 153 156 161 162 164 165 168 172 173 182 185 186 199 200 205 211 214 220 231 234 237 243 244 247 249 252 256 257 262 268 280 283 291 293 298 302 304 316 329 330 331 335 336 348 349 358 359 360 361 366 368 371 373 376 380 383 384 388\""
param dtnsim.central.contactIdsToDelete_from_celestialA "\"9 15 25 50 53 56 59 66 77 79 95 96 97 102 106 127 129 132 136 137 139 148 156 161 165 182 186 199 205 220 234 237 244 247 256 257 280 283 291 293 298 304 316 331 335 349 360 368 371 373 380 384 388\""
param dtnsim.central.contactIdsToDelete_from_celestialB "\"7 16 18 21 24 45 68 81 91 94 111 115 122 128 130 131 134 135 150 152 153 162 164 168 172 173 185 200 211 214 231 243 249 252 262 268 302 329 330 336 348 358 359 361 366 376 383\""
param dtnsim.central.celestialA_nodes "\"1 2 3\""
param dtnsim.central.celestialB_nodes "\"4 5 6\""
param dtnsim.central.locallyfaultsAware true
param dtnsim.central.mode_two_celestial true
param dtnsim.central.faultsAware false
param dtnsim.nodesNumber 6
param dtnsim.node[1].icon "\"receiverdish\""
param dtnsim.node[2..5].icon "\"satellite\""
param dtnsim.node[6].icon "\"receiverdish\""
param dtnsim.node[*].dtn.routing "\"cgrModel350\""
param dtnsim.node[*].dtn.routingType "\"routeListType:allPaths-firstEnding,volumeAware:allContacts,extensionBlock:on,contactPlan:global\""
param dtnsim.node[1].app.enable true
param dtnsim.node[1].app.custodyTransfer true
param dtnsim.node[1].app.bundlesNumber "\"2000\""
param dtnsim.node[1].app.start "\"0\""
param dtnsim.node[1].app.destinationEid "\"6\""
param dtnsim.node[1].app.size "\"1500\""
param dtnsim.node[1].app.interval 1
param dtnsim.node[*].app.custodyTimeout 100000000000000
param dtnsim.node[1].app.ttl 40000

vector 0 dtnsim.node[6].app appBundleReceivedDelayvec:vector ETV
attr interpolationmode none
attr source appBundleReceivedDelay
attr title "appBundleReceivedDelayvec, vector"
0	15742	531.21	531.21
0	15743	531.21	530.21
0	15744	531.21	529.21
0	15745	531.21	528.21
0	15746	531.21	527.21
0	15747	531.21	526.21
0	15748	531.21	525.21
0	15749	531.21	524.21
0	15750	531.21	523.21
0	15751	531.21	522.21
0	15752	531.21	521.21
0	15753	531.21	520.21
0	15754	531.21	519.21
0	15755	531.21	518.21
0	15756	531.21	517.21
0	15757	531.21	516.21
0	15758	531.21	515.21
0	15759	531.21	514.21
0	15760	531.21	513.21
0	15761	531.21	512.21
0	15762	531.21	511.21
0	15763	531.21	510.21
0	15764	531.21	509.21
0	15765	531.21	508.21
0	15766	531.21	507.21
0	15767	531.21	506.21
0	15768	531.21	505.21
0	15769	531.21	504.21
0	15770	531.21	503.21
0	15771	531.21	502.21
0	15772	531.21	501.21
0	15773	531.21	500.21
0	15774	531.21	499.21
0	15775	531.21	498.21
0	15776	531.21	497.21
0	15777	531.21	496.21
0	15778	531.21	495.21
0	15779	531.21	494.21
0	15780	531.21	493.21
0	15781	531.21	492.21
0	15782	531.21	491.21
0	15783	531.21	490.21
0	15784	531.21	489.21
0	15785	531.21	488.21
0	15786	531.21	487.21
0	15787	531.21	486.21
0	15788	531.21	485.21
0	15789	531.21	484.21
0	15790	531.21	483.21
0	15791	531.21	482.21
0	15792	531.21	481.21
0	15793	531.21	480.21
0	15794	531.21	479.21
0	15795	531.21	478.21
0	15796	531.21	477.21
0	15797	531.21	476.21
0	15798	531.21	475.21
0	15799	531.21	474.21
0	15800	531.21	473.21
0	15801	531.21	472.21
0	15802	531.21	471.21
0	15803	531.21	470.21
0	15804	531.21	469.21
0	15805	531.21	468.21
0	15806	531.21	467.21
0	15807	531.21	466.21
0	15808	531.21	465.21
0	15809	531.21	464.21
0	15810	531.21	463.21
0	15811	531.21	462.21
0	15812	531.21	461.21
0	15813	531.21	460.21
0	15814	531.21	459.21
0	15815	531.21	458.21
0	15816	531.21	457.21
0	15817	531.21	456.21
0	15818	531.21	455.21
0	15819	531.21	454.21
0	15820	531.21	453.21
0	15821	531.21	452.21
0	15822	531.21	451.21
0	15823	531.21	450.21
0	15824	531.21	449.21
0	15825	531.21	448.21
0	15826	531.21	447.21
0	15827	531.21	446.21
0	15828	531.21	445.21
0	15829	531.21	444.21
0	15830	531.21	443.21
0	15831	531.21	442.21
0	15832	531.21	441.21
0	15833	531.21	440.21
0	15834	531.21	439.21
0	15835	531.21	438.21
0	15836	531.21	437.21
0	15837	531.21	436.21
0	15838	531.21	435.21
0	15839	531.21	434.21
0	15840	531.21	433.21
0	15841	531.21	432.21
0	15842	531.21	431.21
0	15843	531.21	430.21
0	15844	531.21	429.21
0	15845	531.21	428.21
0	15846	531.21	427.21
0	15847	531.21	426.21
0	15848	531.21	425.21
0	15849	531.21	424.21
0	15850	531.21	423.21
0	15851	531.21	422.21
0	15852	531.21	421.21
0	15853	531.21	420.21
0	15854	531.21	419.21
0	15855	531.21	418.21
0	15856	531.21	417.21
0	15857	531.21	416.21
0	15858	531.21	415.21
0	15859	531.21	414.21
0	15860	531.21	413.21
0	15861	531.21	412.21
0	15862	531.21	411.21
0	15863	531.21	410.21
0	15864	531.21	409.21
0	15865	531.21	408.21
0	15866	531.21	407.21
0	15867	531.21	406.21
0	15868	531.21	405.21
0	15869	531.21	404.21
0	15870	531.21	403.21
0	15871	531.21	402.21
0	15872	531.21	401.21
0	15873	531.21	400.21
0	15874	531.21	399.21
0	15875	531.21	398.21
0	15876	531.21	397.21
0	15877	531.21	396.21
0	15878	531.21	395.21
0	15879	531.21	394.21
0	15880	531.21	393.21
0	15881	531.21	392.21
0	15882	531.21	391.21
0	15883	531.21	390.21
0	15884	531.21	389.21
0	15885	531.21	388.21
0	15886	531.21	387.21
0	15887	531.21	386.21
0	15888	531.21	385.21
0	15889	531.21	384.21
0	15890	531.21	383.21
0	15891	531.21	382.21
0	15892	531.21	381.21
0	15893	531.21	380.21
0	15894	531.21	379.21
0	15895	531.21	378.21
0	15896	531.21	377.21
0	15897	531.21	376.21
0	15898	531.21	375.21
0	15899	531.21	374.21
0	15900	531.21	373.21
0	15901	531.21	372.21
0	15902	531.21	371.21
0	15903	531.21	370.21
0	15904	531.21	369.21
0	15905	531.21	368.21
0	15906	531.21	367.21
0	15907	531.21	366.21
0	15908	531.21	365.21
0	15909	531.21	364.21
0	15910	531.21	363.21
0	15911	531.21	362.21
0	15912	531.21	361.21
0	15913	531.21	360.21
0	15914	531.21	359.21
0	15915	531.21	358.21
0	15916	531.21	357.21
0	15917	531.21	356.21
0	15918	531.21	355.21
0	15919	531.21	354.21
0	15920	531.21	353.21
0	15921	531.21	352.21
0	15922	531.21	351.21
0	15923	531.21	350.21
0	15924	531.21	349.21
0	15925	531.21	348.21
0	15926	531.21	347.21
0	15927	531.21	346.21
0	15928	531.21	345.21
0	15929	531.21	344.21
0	15930	531.21	343.21
0	15931	531.21	342.21
0	15932	531.21	341.21
0	15933	531.21	340.21
0	15934	531.21	339.21
0	15935	531.21	338.21
0	15936	531.21	337.21
0	15937	531.21	336.21
0	15938	531.21	335.21
0	15939	531.21	334.21
0	15940	531.21	333.21
0	15941	531.21	332.21
0	15942	531.21	331.21
0	15943	531.21	330.21
0	15944	531.21	329.21
0	15945	531.21	328.21
0	15946	531.21	327.21
0	15947	531.21	326.21
0	15948	531.21	325.21
0	15949	531.21	324.21
0	15950	531.21	323.21
0	15951	531.21	322.21
0	15952	531.21	321.21
0	15953	531.21	320.21
0	15954	531.21	319.21
0	15955	531.21	318.21
0	15956	531.21	317.21
0	15957	531.21	316.21
0	15958	531.21	315.21
0	15959	531.21	314.21
0	15960	531.21	313.21
0	15961	531.21	312.21
0	15962	531.21	311.21
0	15963	531.21	310.21
0	15964	531.21	309.21
0	15965	531.21	308.21
0	15966	531.21	307.21
0	15967	531.21	306.21
0	15968	531.21	305.21
0	15969	531.21	304.21
0	15970	531.21	303.21
0	15971	531.21	302.21
0	15972	531.21	301.21
0	15973	531.21	300.21
0	15974	531.21	299.21
0	15975	531.21	298.21
0	15976	531.21	297.21
0	15977	531.21	296.21
0	15978	531.21	295.21
0	15979	531.21	294.21
0	15980	531.21	293.21
0	15981	531.21	292.21
0	15982	531.21	291.21
0	15983	531.21	290.21
0	15984	531.21	289.21
0	15985	531.21	288.21
0	15986	531.21	287.21
0	15987	531.21	286.21
0	15988	531.21	285.21
0	15989	531.21	284.21
0	15990	531.21	283.21
0	15991	531.21	282.21
0	15992	531.21	281.21
0	15993	531.21	280.21
0	15994	531.21	279.21
0	15995	531.21	278.21
0	15996	531.21	277.21
0	15997	531.21	276.21
0	15998	531.21	275.21
0	15999	531.21	274.21
0	16000	531.21	273.21
0	16001	531.21	272.21
0	16002	531.21	271.21
0	16003	531.21	270.21
0	16004	531.21	269.21
0	16005	531.21	268.21
0	16006	531.21	267.21
0	16007	531.21	266.21
0	16008	531.21	265.21
0	16009	531.21	264.21
0	16010	531.21	263.21
0	16011	531.21	262.21
0	16012	531.21	261.21
0	16013	531.21	260.21
0	16014	531.21	259.21
0	16015	531.21	258.21
0	16016	531.21	257.21
0	16017	531.21	256.21
0	16018	531.21	255.21
0	16019	531.21	254.21
0	16020	531.21	253.21
0	16021	531.21	252.21
0	16022	531.21	251.21
0	16023	531.21	250.21
0	16024	531.21	249.21
0	16025	531.21	248.21
0	16026	531.21	247.21
0	16027	531.21	246.21
0	16028	531.21	245.21
0	16029	531.21	244.21
0	16030	531.21	243.21
0	16031	531.21	242.21
0	16032	531.21	241.21
0	16033	531.21	240.21
0	16034	531.21	239.21
0	16035	531.21	238.21
0	16036	531.21	237.21
0	16037	531.21	236.21
0	16038	531.21	235.21
0	16039	531.21	234.21
0	16040	531.21	233.21
0	16041	531.21	232.21
0	16042	531.21	231.21
0	16043	531.21	230.21
0	16044	531.21	229.21
0	16045	531.21	228.21
0	16046	531.21	227.21
0	16047	531.21	226.21
0	16048	531.21	225.21
0	16049	531.21	224.21
0	16050	531.21	223.21
0	16051	531.21	222.21
0	16052	531.21	221.21
0	16053	531.21	220.21
0	16054	531.21	219.21
0	16055	531.21	218.21
0	16056	531.21	217.21
0	16057	531.21	216.21
0	16058	531.21	215.21
0	16059	531.21	214.21
0	16060	531.21	213.21
0	16061	531.21	212.21
0	16062	531.21	211.21
0	16063	531.21	210.21
0	16064	531.21	209.21
0	16065	531.21	208.21
0	16066	531.21	207.21
0	16067	531.21	206.21
0	16068	531.21	205.21
0	16069	531.21	204.21
0	16070	531.21	203.21
0	16071	531.21	202.21
0	16072	531.21	201.21
0	16073	531.21	200.21
0	17778	532.21	200.21
0	17828	533.21	200.21
0	17878	534.21	200.21
0	17928	535.21	200.21
0	17978	536.21	200.21
0	18028	537.21	200.21
0	18078	538.21	200.21
0	18128	539.21	200.21
0	18178	540.21	200.21
0	18228	541.21	200.21
0	18280	542.21	200.21
0	18330	543.21	200.21
0	18380	544.21	200.21
0	18430	545.21	200.21
0	18480	546.21	200.21
0	18530	547.21	200.21
0	18580	548.21	200.21
0	18630	549.21	200.21
0	18680	550.21	200.21
0	18730	551.21	200.21
0	18780	552.21	200.21
0	18830	553.21	200.21
0	18880	554.21	200.21
0	18930	555.21	200.21
0	18980	556.21	200.21
0	19030	557.21	200.21
0	19080	558.21	200.21
0	19130	559.21	200.21
0	19180	560.21	200.21
0	19230	561.21	200.21
0	19280	562.21	200.21
0	19332	563.21	200.21
0	19383	564.21	200.21
0	19434	565.21	200.21
0	19485	566.21	200.21
0	19536	567.21	200.21
0	19587	568.21	200.21
0	19638	569.21	200.21
0	19689	570.21	200.21
0	19740	571.21	200.21
0	19793	572.21	200.21
0	19844	573.21	200.21
0	19895	574.21	200.21
0	19946	575.21	200.21
0	19997	576.21	200.21
0	20048	577.21	200.21
0	20099	578.21	200.21
0	20150	579.21	200.21
0	20201	580.21	200.21
0	20252	581.21	200.21
0	20303	582.21	200.21
0	20354	583.21	200.21
0	20405	584.21	200.21
0	20456	585.21	200.21
0	20507	586.21	200.21
0	20558	587.21	200.21
0	20609	588.21	200.21
0	20660	589.21	200.21
0	20711	590.21	200.21
0	20762	591.21	200.21
0	20813	592.21	200.21
0	20864	593.21	200.21
0	20915	594.21	200.21
0	20966	595.21	200.21
0	21017	596.21	200.21
0	21068	597.21	200.21
0	21119	598.21	200.21
0	21170	599.21	200.21
0	21221	600.21	200.21
0	21272	601.21	200.21
0	21323	602.21	200.21
0	21374	603.21	200.21
0	21425	604.21	200.21
0	21476	605.21	200.21
0	21527	606.21	200.21
0	21578	607.21	200.21
0	21629	608.21	200.21
0	21680	609.21	200.21
0	21731	610.21	200.21
0	21782	611.21	200.21
0	21833	612.21	200.21
0	21884	613.21	200.21
0	21935	614.21	200.21
0	21986	615.21	200.21
0	22037	616.21	200.21
0	22088	617.21	200.21
0	22139	618.21	200.21
0	22190	619.21	200.21
0	22241	620.21	200.21
0	22292	621.21	200.21
0	22343	622.21	200.21
0	22394	623.21	200.21
0	22445	624.21	200.21
0	22496	625.21	200.21
0	22547	626.21	200.21
0	22598	627.21	200.21
0	22649	628.21	200.21
0	22700	629.21	200.21
0	22751	630.21	200.21
0	27782	631.21	631.21
0	27783	631.21	630.21
0	27784	631.21	629.21
0	27785	631.21	628.21
0	27786	631.21	627.21
0	27787	631.21	626.21
0	27788	631.21	625.21
0	27789	631.21	624.21
0	27790	631.21	623.21
0	27791	631.21	622.21
0	27792	631.21	621.21
0	27793	631.21	620.21
0	27794	631.21	619.21
0	27795	631.21	618.21
0	27796	631.21	617.21
0	27797	631.21	616.21
0	27798	631.21	615.21
0	27799	631.21	614.21
0	27800	631.21	613.21
0	27801	631.21	612.21
0	27802	631.21	611.21
0	27803	631.21	610.21
0	27804	631.21	609.21
0	27805	631.21	608.21
0	27806	631.21	607.21
0	27807	631.21	606.21
0	27808	631.21	605.21
0	27809	631.21	604.21
0	27810	631.21	603.21
0	27811	631.21	602.21
0	27812	631.21	601.21
0	27813	631.21	600.21
0	27814	631.21	599.21
0	27815	631.21	598.21
0	27816	631.21	597.21
0	27817	631.21	596.21
0	27818	631.21	595.21
0	27819	631.21	594.21
0	27820	631.21	593.21
0	27821	631.21	592.21
0	27822	631.21	591.21
0	27823	631.21	590.21
0	27824	631.21	589.21
0	27825	631.21	588.21
0	27826	631.21	587.21
0	27827	631.21	586.21
0	27828	631.21	585.21
0	27829	631.21	584.21
0	27830	631.21	583.21
0	27831	631.21	582.21
0	27832	631.21	581.21
0	27833	631.21	580.21
0	27834	631.21	579.21
0	27835	631.21	578.21
0	27836	631.21	577.21
0	27837	631.21	576.21
0	27838	631.21	575.21
0	27839	631.21	574.21
0	27840	631.21	573.21
0	27841	631.21	572.21
0	27842	631.21	571.21
0	27843	631.21	570.21
0	27844	631.21	569.21
0	27845	631.21	568.21
0	27846	631.21	567.21
0	27847	631.21	566.21
0	27848	631.21	565.21
0	27849	631.21	564.21
0	27850	631.21	563.21
0	27851	631.21	562.21
0	27852	631.21	561.21
0	27853	631.21	560.21
0	27854	631.21	559.21
0	27855	631.21	558.21
0	27856	631.21	557.21
0	27857	631.21	556.21
0	27858	631.21	555.21
0	27859	631.21	554.21
0	27860	631.21	553.21
0	27861	631.21	552.21
0	27862	631.21	551.21
0	27863	631.21	550.21
0	27864	631.21	549.21
0	27865	631.21	548.21
0	27866	631.21	547.21
0	27867	631.21	546.21
0	27868	631.21	545.21
0	27869	631.21	544.21
0	27870	631.21	543.21
0	27871	631.21	542.21
0	27872	631.21	541.21
0	27873	631.21	540.21
0	27874	631.21	539.21
0	27875	631.21	538.21
0	27876	631.21	537.21
0	27877	631.21	536.21
0	27878	631.21	535.21
0	27879	631.21	534.21
0	27880	631.21	533.21
0	27881	631.21	532.21
0	27882	631.21	531.21
0	27883	631.21	530.21
0	27884	631.21	529.21
0	27885	631.21	528.21
0	27886	631.21	527.21
0	27887	631.21	526.21
0	27888	631.21	525.21
0	27889	631.21	524.21
0	27890	631.21	523.21
0	27891	631.21	522.21
0	27892	631.21	521.21
0	27893	631.21	520.21
0	27894	631.21	519.21
0	27895	631.21	518.21
0	27896	631.21	517.21
0	27897	631.21	516.21
0	27898	631.21	515.21
0	27899	631.21	514.21
0	27900	631.21	513.21
0	27901	631.21	512.21
0	27902	631.21	511.21
0	27903	631.21	510.21
0	27904	631.21	509.21
0	27905	631.21	508.21
0	27906	631.21	507.21
0	27907	631.21	506.21
0	27908	631.21	505.21
0	27909	631.21	504.21
0	27910	631.21	503.21
0	27911	631.21	502.21
0	27912	631.21	501.21
0	27913	631.21	500.21
0	27914	631.21	499.21
0	27915	631.21	498.21
0	27916	631.21	497.21
0	27917	631.21	496.21
0	27918	631.21	495.21
0	27919	631.21	494.21
0	27920	631.21	493.21
0	27921	631.21	492.21
0	27922	631.21	491.21
0	27923	631.21	490.21
0	27924	631.21	489.21
0	27925	631.21	488.21
0	27926	631.21	487.21
0	27927	631.21	486.21
0	27928	631.21	485.21
0	27929	631.21	484.21
0	27930	631.21	483.21
0	27931	631.21	482.21
0	27932	631.21	481.21
0	27933	631.21	480.21
0	27934	631.21	479.21
0	27935	631.21	478.21
0	27936	631.21	477.21
0	27937	631.21	476.21
0	27938	631.21	475.21
0	27939	631.21	474.21
0	27940	631.21	473.21
0	27941	631.21	472.21
0	27942	631.21	471.21
0	27943	631.21	470.21
0	27944	631.21	469.21
0	27945	631.21	468.21
0	27946	631.21	467.21
0	27947	631.21	466.21
0	27948	631.21	465.21
0	27949	631.21	464.21
0	27950	631.21	463.21
0	27951	631.21	462.21
0	27952	631.21	461.21
0	27953	631.21	460.21
0	27954	631.21	459.21
0	27955	631.21	458.21
0	27956	631.21	457.21
0	27957	631.21	456.21
0	27958	631.21	455.21
0	27959	631.21	454.21
0	27960	631.21	453.21
0	27961	631.21	452.21
0	27962	631.21	451.21
0	27963	631.21	450.21
0	27964	631.21	449.21
0	27965	631.21	448.21
0	27966	631.21	447.21
0	27967	631.21	446.21
0	27968	631.21	445.21
0	27969	631.21	444.21
0	27970	631.21	443.21
0	27971	631.21	442.21
0	27972	631.21	441.21
0	27973	631.21	440.21
0	27974	631.21	439.21
0	27975	631.21	438.21
0	27976	631.21	437.21
0	27977	631.21	436.21
0	27978	631.21	435.21
0	27979	631.21	434.21
0	27980	631.21	433.21
0	27981	631.21	432.21
0	27982	631.21	431.21
0	27983	631.21	430.21
0	27984	631.21	429.21
0	27985	631.21	428.21
0	27986	631.21	427.21
0	27987	631.21	426.21
0	27988	631.21	425.21
0	27989	631.21	424.21
0	27990	631.21	423.21
0	27991	631.21	422.21
0	27992	631.21	421.21
0	27993	631.21	420.21
0	27994	631.21	419.21
0	27995	631.21	418.21
0	27996	631.21	417.21
0	27997	631.21	416.21
0	27998	631.21	415.21
0	27999	631.21	414.21
0	28000	631.21	413.21
0	28001	631.21	412.21
0	28002	631.21	411.21
0	28003	631.21	410.21
0	28004	631.21	409.21
0	28005	631.21	408.21
0	28006	631.21	407.21
0	28007	631.21	406.21
0	28008	631.21	405.21
0	28009	631.21	404.21
0	28010	631.21	403.21
0	28011	631.21	402.21
0	28012	631.21	401.21
0	28013	631.21	400.21
0	28014	631.21	399.21
0	28015	631.21	398.21
0	28016	631.21	397.21
0	28017	631.21	396.21
0	28018	631.21	395.21
0	28019	631.21	394.21
0	28020	631.21	393.21
0	28021	631.21	392.21
0	28022	631.21	391.21
0	28023	631.21	390.21
0	28024	631.21	389.21
0	28025	631.21	388.21
0	28026	631.21	387.21
0	28027	631.21	386.21
0	28028	631.21	385.21
0	28029	631.21	384.21
0	28030	631.21	383.21
0	28031	631.21	382.21
0	28032	631.21	381.21
0	28033	631.21	380.21
0	28034	631.21	379.21
0	28035	631.21	378.21
0	28036	631.21	377.21
0	28037	631.21	376.21
0	28038	631.21	375.21
0	28039	631.21	374.21
0	28040	631.21	373.21
0	28041	631.21	372.21
0	28042	631.21	371.21
0	28043	631.21	370.21
0	28044	631.21	369.21
0	28045	631.21	368.21
0	28046	631.21	367.21
0	28047	631.21	366.21
0	28048	631.21	365.21
0	28049	631.21	364.21
0	28050	631.21	363.21
0	28051	631.21	362.21
0	28052	631.21	361.21
0	28053	631.21	360.21
0	28054	631.21	359.21
0	28055	631.21	358.21
0	28056	631.21	357.21
0	28057	631.21	356.21
0	28058	631.21	355.21
0	28059	631.21	354.21
0	28060	631.21	353.21
0	28061	631.21	352.21
0	28062	631.21	351.21
0	28063	631.21	350.21
0	28064	631.21	349.21
0	28065	631.21	348.21
0	28066	631.21	347.21
0	28067	631.21	346.21
0	28068	631.21	345.21
0	28069	631.21	344.21
0	28070	631.21	343.21
0	28071	631.21	342.21
0	28072	631.21	341.21
0	28073	631.21	340.21
0	28074	631.21	339.21
0	28075	631.21	338.21
0	28076	631.21	337.21
0	28077	631.21	336.21
0	28078	631.21	335.21
0	28079	631.21	334.21
0	28080	631.21	333.21
0	28081	631.21	332.21
0	28082	631.21	331.21
0	28083	631.21	330.21
0	28084	631.21	329.21
0	28085	631.21	328.21
0	28086	631.21	327.21
0	28087	631.21	326.21
0	28088	631.21	325.21
0	28089	631.21	324.21
0	28090	631.21	323.21
0	28091	631.21	322.21
0	28092	631.21	321.21
0	28093	631.21	320.21
0	28094	631.21	319.21
0	28095	631.21	318.21
0	28096	631.21	317.21
0	28097	631.21	316.21
0	28098	631.21	315.21
0	28099	631.21	314.21
0	28100	631.21	313.21
0	28101	631.21	312.21
0	28102	631.21	311.21
0	28103	631.21	310.21
0	28104	631.21	309.21
0	28105	631.21	308.21
0	28106	631.21	307.21
0	28107	631.21	306.21
0	28108	631.21	305.21
0	28109	631.21	304.21
0	28110	631.21	303.21
0	28111	631.21	302.21
0	28112	631.21	301.21
0	28113	631.21	300.21
0	28114	631.21	200.21
0	29840	632.21	300.21
0	29841	632.21	200.21
0	29912	633.21	300.21
0	29913	633.21	200.21
0	29984	634.21	300.21
0	29985	634.21	200.21
0	30056	635.21	300.21
0	30057	635.21	200.21
0	30128	636.21	300.21
0	30129	636.21	200.21
0	30200	637.21	300.21
0	30201	637.21	200.21
0	30272	638.21	300.21
0	30273	638.21	200.21
0	30344	639.21	300.21
0	30345	639.21	200.21
0	30416	640.21	300.21
0	30417	640.21	200.21
0	30488	641.21	300.21
0	30489	641.21	200.21
0	30560	642.21	300.21
0	30561	642.21	200.21
0	30632	643.21	300.21
0	30633	643.21	200.21
0	30704	644.21	300.21
0	30705	644.21	200.21
0	30776	645.21	300.21
0	30777	645.21	200.21
0	30848	646.21	300.21
0	30849	646.21	200.21
0	30920	647.21	300.21
0	30921	647.21	200.21
0	30992	648.21	300.21
0	30993	648.21	200.21
0	31064	649.21	300.21
0	31065	649.21	200.21
0	31136	650.21	300.21
0	31137	650.21	200.21
0	31208	651.21	300.21
0	31209	651.21	200.21
0	31280	652.21	300.21
0	31281	652.21	200.21
0	31352	653.21	300.21
0	31353	653.21	200.21
0	31424	654.21	300.21
0	31425	654.21	200.21
0	31496	655.21	300.21
0	31497	655.21	200.21
0	31568	656.21	300.21
0	31569	656.21	200.21
0	31640	657.21	300.21
0	31641	657.21	200.21
0	31712	658.21	300.21
0	31713	658.21	200.21
0	31784	659.21	300.21
0	31785	659.21	200.21
0	31856	660.21	300.21
0	31857	660.21	200.21
0	31928	661.21	300.21
0	31929	661.21	200.21
0	32000	662.21	300.21
0	32001	662.21	200.21
0	32072	663.21	300.21
0	32073	663.21	200.21
0	32144	664.21	300.21
0	32145	664.21	200.21
0	32216	665.21	300.21
0	32217	665.21	200.21
0	32288	666.21	300.21
0	32289	666.21	200.21
0	32360	667.21	300.21
0	32361	667.21	200.21
0	32432	668.21	300.21
0	32433	668.21	200.21
0	32504	669.21	300.21
0	32505	669.21	200.21
0	32576	670.21	300.21
0	32577	670.21	200.21
0	32648	671.21	300.21
0	32649	671.21	200.21
0	32720	672.21	300.21
0	32721	672.21	200.21
0	32792	673.21	300.21
0	32793	673.21	200.21
0	32864	674.21	300.21
0	32865	674.21	200.21
0	32936	675.21	300.21
0	32937	675.21	200.21
0	33008	676.21	300.21
0	33009	676.21	200.21
0	33080	677.21	300.21
0	33081	677.21	200.21
0	33152	678.21	300.21
0	33153	678.21	200.21
0	33224	679.21	300.21
0	33225	679.21	200.21
0	33296	680.21	300.21
0	33297	680.21	200.21
0	33368	681.21	300.21
0	33369	681.21	200.21
0	33440	682.21	300.21
0	33441	682.21	200.21
0	33512	683.21	300.21
0	33513	683.21	200.21
0	33584	684.21	300.21
0	33585	684.21	200.21
0	33656	685.21	300.21
0	33657	685.21	200.21
0	33728	686.21	300.21
0	33729	686.21	200.21
0	33800	687.21	300.21
0	33801	687.21	200.21
0	33872	688.21	300.21
0	33873	688.21	200.21
0	33944	689.21	300.21
0	33945	689.21	200.21
0	34016	690.21	300.21
0	34017	690.21	200.21
0	34088	691.21	300.21
0	34089	691.21	200.21
0	34160	692.21	300.21
0	34161	692.21	200.21
0	34232	693.21	300.21
0	34233	693.21	200.21
0	34304	694.21	300.21
0	34305	694.21	200.21
0	34376	695.21	300.21
0	34377	695.21	200.21
0	34448	696.21	300.21
0	34449	696.21	200.21
0	34520	697.21	300.21
0	34521	697.21	200.21
0	34592	698.21	300.21
0	34593	698.21	200.21
0	34664	699.21	300.21
0	34665	699.21	200.21
0	34736	700.21	300.21
0	34737	700.21	200.21
0	34808	701.21	300.21
0	34809	701.21	200.21
0	34880	702.21	300.21
0	34881	702.21	200.21
0	34952	703.21	300.21
0	34953	703.21	200.21
0	35024	704.21	300.21
0	35025	704.21	200.21
0	35096	705.21	300.21
0	35097	705.21	200.21
0	35168	706.21	300.21
0	35169	706.21	200.21
0	35240	707.21	300.21
0	35241	707.21	200.21
0	35312	708.21	300.21
0	35313	708.21	200.21
0	35384	709.21	300.21
0	35385	709.21	200.21
0	35456	710.21	300.21
0	35457	710.21	200.21
0	35528	711.21	300.21
0	35529	711.21	200.21
0	35600	712.21	300.21
0	35601	712.21	200.21
0	35672	713.21	300.21
0	35673	713.21	200.21
0	35744	714.21	300.21
0	35745	714.21	200.21
0	35816	715.21	300.21
0	35817	715.21	200.21
0	35888	716.21	300.21
0	35889	716.21	200.21
0	35960	717.21	300.21
0	35961	717.21	200.21
0	36032	718.21	300.21
0	36033	718.21	200.21
0	36104	719.21	300.21
0	36105	719.21	200.21
0	36176	720.21	300.21
0	36177	720.21	200.21
0	36248	721.21	300.21
0	36249	721.21	200.21
0	36320	722.21	300.21
0	36321	722.21	200.21
0	36392	723.21	300.21
0	36393	723.21	200.21
0	36464	724.21	300.21
0	36465	724.21	200.21
0	36536	725.21	300.21
0	36537	725.21	200.21
0	36608	726.21	300.21
0	36609	726.21	200.21
0	36680	727.21	300.21
0	36681	727.21	200.21
0	36752	728.21	300.21
0	36753	728.21	200.21
0	36824	729.21	300.21
0	36825	729.21	200.21
0	36896	730.21	300.21
0	36897	730.21	200.21
0	41948	731.21	731.21
0	41949	731.21	730.21
0	41950	731.21	729.21
0	41951	731.21	728.21
0	41952	731.21	727.21
0	41953	731.21	726.21
0	41954	731.21	725.21
0	41955	731.21	724.21
0	41956	731.21	723.21
0	41957	731.21	722.21
0	41958	731.21	721.21
0	41959	731.21	720.21
0	41960	731.21	719.21
0	41961	731.21	718.21
0	41962	731.21	717.21
0	41963	731.21	716.21
0	41964	731.21	715.21
0	41965	731.21	714.21
0	41966	731.21	713.21
0	41967	731.21	712.21
0	41968	731.21	711.21
0	41969	731.21	710.21
0	41970	731.21	709.21
0	41971	731.21	708.21
0	41972	731.21	707.21
0	41973	731.21	706.21
0	41974	731.21	705.21
0	41975	731.21	704.21
0	41976	731.21	703.21
0	41977	731.21	702.21
0	41978	731.21	701.21
0	41979	731.21	700.21
0	41980	731.21	699.21
0	41981	731.21	698.21
0	41982	731.21	697.21
0	41983	731.21	696.21
0	41984	731.21	695.21
0	41985	731.21	694.21
0	41986	731.21	693.21
0	41987	731.21	692.21
0	41988	731.21	691.21
0	41989	731.21	690.21
0	41990	731.21	689.21
0	41991	731.21	688.21
0	41992	731.21	687.21
0	41993	731.21	686.21
0	41994	731.21	685.21
0	41995	731.21	684.21
0	41996	731.21	683.21
0	41997	731.21	682.21
0	41998	731.21	681.21
0	41999	731.21	680.21
0	42000	731.21	679.21
0	42001	731.21	678.21
0	42002	731.21	677.21
0	42003	731.21	676.21
0	42004	731.21	675.21
0	42005	731.21	674.21
0	42006	731.21	673.21
0	42007	731.21	672.21
0	42008	731.21	671.21
0	42009	731.21	670.21
0	42010	731.21	669.21
0	42011	731.21	668.21
0	42012	731.21	667.21
0	42013	731.21	666.21
0	42014	731.21	665.21
0	42015	731.21	664.21
0	42016	731.21	663.21
0	42017	731.21	662.21
0	42018	731.21	661.21
0	42019	731.21	660.21
0	42020	731.21	659.21
0	42021	731.21	658.21
0	42022	731.21	657.21
0	42023	731.21	656.21
0	42024	731.21	655.21
0	42025	731.21	654.21
0	42026	731.21	653.21
0	42027	731.21	652.21
0	42028	731.21	651.21
0	42029	731.21	650.21
0	42030	731.21	649.21
0	42031	731.21	648.21
0	42032	731.21	647.21
0	42033	731.21	646.21
0	42034	731.21	645.21
0	42035	731.21	644.21
0	42036	731.21	643.21
0	42037	731.21	642.21
0	42038	731.21	641.21
0	42039	731.21	640.21
0	42040	731.21	639.21
0	42041	731.21	638.21
0	42042	731.21	637.21
0	42043	731.21	636.21
0	42044	731.21	635.21
0	42045	731.21	634.21
0	42046	731.21	633.21
0	42047	731.21	632.21
0	42048	731.21	631.21
0	42049	731.21	630.21
0	42050	731.21	629.21
0	42051	731.21	628.21
0	42052	731.21	627.21
0	42053	731.21	626.21
0	42054	731.21	625.21
0	42055	731.21	624.21
0	42056	731.21	623.21
0	42057	731.21	622.21
0	42058	731.21	621.21
0	42059	731.21	620.21
0	42060	731.21	619.21
0	42061	731.21	618.21
0	42062	731.21	617.21
0	42063	731.21	616.21
0	42064	731.21	615.21
0	42065	731.21	614.21
0	42066	731.21	613.21
0	42067	731.21	612.21
0	42068	731.21	611.21
0	42069	731.21	610.21
0	42070	731.21	609.21
0	42071	731.21	608.21
0	42072	731.21	607.21
0	42073	731.21	606.21
0	42074	731.21	605.21
0	42075	731.21	604.21
0	42076	731.21	603.21
0	42077	731.21	602.21
0	42078	731.21	601.21
0	42079	731.21	600.21
0	42080	731.21	599.21
0	42081	731.21	598.21
0	42082	731.21	597.21
0	42083	731.21	596.21
0	42084	731.21	595.21
0	42085	731.21	594.21
0	42086	731.21	593.21
0	42087	731.21	592.21
0	42088	731.21	591.21
0	42089	731.21	590.21
0	42090	731.21	589.21
0	42091	731.21	588.21
0	42092	731.21	587.21
0	42093	731.21	586.21
0	42094	731.21	585.21
0	42095	731.21	584.21
0	42096	731.21	583.21
0	42097	731.21	582.21
0	42098	731.21	581.21
0	42099	731.21	580.21
0	42100	731.21	579.21
0	42101	731.21	578.21
0	42102	731.21	577.21
0	42103	731.21	576.21
0	42104	731.21	575.21
0	42105	731.21	574.21
0	42106	731.21	573.21
0	42107	731.21	572.21
0	42108	731.21	571.21
0	42109	731.21	570.21
0	42110	731.21	569.21
0	42111	731.21	568.21
0	42112	731.21	567.21
0	42113	731.21	566.21
0	42114	731.21	565.21
0	42115	731.21	564.21
0	42116	731.21	563.21
0	42117	731.21	562.21
0	42118	731.21	561.21
0	42119	731.21	560.21
0	42120	731.21	559.21
0	42121	731.21	558.21
0	42122	731.21	557.21
0	42123	731.21	556.21
0	42124	731.21	555.21
0	42125	731.21	554.21
0	42126	731.21	553.21
0	42127	731.21	552.21
0	42128	731.21	551.21
0	42129	731.21	550.21
0	42130	731.21	549.21
0	42131	731.21	548.21
0	42132	731.21	547.21
0	42133	731.21	546.21
0	42134	731.21	545.21
0	42135	731.21	544.21
0	42136	731.21	543.21
0	42137	731.21	542.21
0	42138	731.21	541.21
0	42139	731.21	540.21
0	42140	731.21	539.21
0	42141	731.21	538.21
0	42142	731.21	537.21
0	42143	731.21	536.21
0	42144	731.21	535.21
0	42145	731.21	534.21
0	42146	731.21	533.21
0	42147	731.21	532.21
0	42148	731.21	531.21
0	42149	731.21	530.21
0	42150	731.21	529.21
0	42151	731.21	528.21
0	42152	731.21	527.21
0	42153	731.21	526.21
0	42154	731.21	525.21
0	42155	731.21	524.21
0	42156	731.21	523.21
0	42157	731.21	522.21
0	42158	731.21	521.21
0	42159	731.21	520.21
0	42160	731.21	519.21
0	42161	731.21	518.21
0	42162	731.21	517.21
0	42163	731.21	516.21
0	42164	731.21	515.21
0	42165	731.21	514.21
0	42166	731.21	513.21
0	42167	731.21	512.21
0	42168	731.21	511.21
0	42169	731.21	510.21
0	42170	731.21	509.21
0	42171	731.21	508.21
0	42172	731.21	507.21
0	42173	731.21	506.21
0	42174	731.21	505.21
0	42175	731.21	504.21
0	42176	731.21	503.21
0	42177	731.21	502.21
0	42178	731.21	501.21
0	42179	731.21	500.21
0	42180	731.21	499.21
0	42181	731.21	498.21
0	42182	731.21	497.21
0	42183	731.21	496.21
0	42184	731.21	495.21
0	42185	731.21	494.21
0	42186	731.21	493.21
0	42187	731.21	492.21
0	42188	731.21	491.21
0	42189	731.21	490.21
0	42190	731.21	489.21
0	42191	731.21	488.21
0	42192	731.21	487.21
0	42193	731.21	486.21
0	42194	731.21	485.21
0	42195	731.21	484.21
0	42196	731.21	483.21
0	42197	731.21	482.21
0	42198	731.21	481.21
0	42199	731.21	480.21
0	42200	731.21	479.21
0	42201	731.21	478.21
0	42202	731.21	477.21
0	42203	731.21	476.21
0	42204	731.21	475.21
0	42205	731.21	474.21
0	42206	731.21	473.21
0	42207	731.21	472.21
0	42208	731.21	471.21
0	42209	731.21	470.21
0	42210	731.21	469.21
0	42211	731.21	468.21
0	42212	731.21	467.21
0	42213	731.21	466.21
0	42214	731.21	465.21
0	42215	731.21	464.21
0	42216	731.21	463.21
0	42217	731.21	462.21
0	42218	731.21	461.21
0	42219	731.21	460.21
0	42220	731.21	459.21
0	42221	731.21	458.21
0	42222	731.21	457.21
0	42223	731.21	456.21
0	42224	731.21	455.21
0	42225	731.21	454.21
0	42226	731.21	453.21
0	42227	731.21	452.21
0	42228	731.21	451.21
0	42229	731.21	450.21
0	42230	731.21	449.21
0	42231	731.21	448.21
0	42232	731.21	447.21
0	42233	731.21	446.21
0	42234	731.21	445.21
0	42235	731.21	444.21
0	42236	731.21	443.21
0	42237	731.21	442.21
0	42238	731.21	441.21
0	42239	731.21	440.21
0	42240	731.21	439.21
0	42241	731.21	438.21
0	42242	731.21	437.21
0	42243	731.21	436.21
0	42244	731.21	435.21
0	42245	731.21	434.21
0	42246	731.21	433.21
0	42247	731.21	432.21
0	42248	731.21	431.21
0	42249	731.21	430.21
0	42250	731.21	429.21
0	42251	731.21	428.21
0	42252	731.21	427.21
0	42253	731.21	426.21
0	42254	731.21	425.21
0	42255	731.21	424.21
0	42256	731.21	423.21
0	42257	731.21	422.21
0	42258	731.21	421.21
0	42259	731.21	420.21
0	42260	731.21	419.21
0	42261	731.21	418.21
0	42262	731.21	417.21
0	42263	731.21	416.21
0	42264	731.21	415.21
0	42265	731.21	414.21
0	42266	731.21	413.21
0	42267	731.21	412.21
0	42268	731.21	411.21
0	42269	731.21	410.21
0	42270	731.21	409.21
0	42271	731.21	408.21
0	42272	731.21	407.21
0	42273	731.21	406.21
0	42274	731.21	405.21
0	42275	731.21	404.21
0	42276	731.21	403.21
0	42277	731.21	402.21
0	42278	731.21	401.21
0	42279	731.21	400.21
0	42280	731.21	300.21
0	42281	731.21	200.21
0	44691	732.21	400.21
0	44692	732.21	300.21
0	44693	732.21	200.21
0	44786	733.21	400.21
0	44787	733.21	300.21
0	44788	733.21	200.21
0	44881	734.21	400.21
0	44882	734.21	300.21
0	44883	734.21	200.21
0	44976	735.21	400.21
0	44977	735.21	300.21
0	44978	735.21	200.21
0	45071	736.21	400.21
0	45072	736.21	300.21
0	45073	736.21	200.21
0	45166	737.21	400.21
0	45167	737.21	300.21
0	45168	737.21	200.21
0	45261	738.21	400.21
0	45262	738.21	300.21
0	45263	738.21	200.21
0	45356	739.21	400.21
0	45357	739.21	300.21
0	45358	739.21	200.21
0	45451	740.21	400.21
0	45452	740.21	300.21
0	45453	740.21	200.21
0	45546	741.21	400.21
0	45547	741.21	300.21
0	45548	741.21	200.21
0	45641	742.21	400.21
0	45642	742.21	300.21
0	45643	742.21	200.21
0	45736	743.21	400.21
0	45737	743.21	300.21
0	45738	743.21	200.21
0	45831	744.21	400.21
0	45832	744.21	300.21
0	45833	744.21	200.21
0	45926	745.21	400.21
0	45927	745.21	300.21
0	45928	745.21	200.21
0	46021	746.21	400.21
0	46022	746.21	300.21
0	46023	746.21	200.21
0	46116	747.21	400.21
0	46117	747.21	300.21
0	46118	747.21	200.21
0	46211	748.21	400.21
0	46212	748.21	300.21
0	46213	748.21	200.21
0	46306	749.21	400.21
0	46307	749.21	300.21
0	46308	749.21	200.21
0	46401	750.21	400.21
0	46402	750.21	300.21
0	46403	750.21	200.21
0	46496	751.21	400.21
0	46497	751.21	300.21
0	46498	751.21	200.21
0	46591	752.21	400.21
0	46592	752.21	300.21
0	46593	752.21	200.21
0	46686	753.21	400.21
0	46687	753.21	300.21
0	46688	753.21	200.21
0	46781	754.21	400.21
0	46782	754.21	300.21
0	46783	754.21	200.21
0	46876	755.21	400.21
0	46877	755.21	300.21
0	46878	755.21	200.21
0	46971	756.21	400.21
0	46972	756.21	300.21
0	46973	756.21	200.21
0	47066	757.21	400.21
0	47067	757.21	300.21
0	47068	757.21	200.21
0	47161	758.21	400.21
0	47162	758.21	300.21
0	47163	758.21	200.21
0	47256	759.21	400.21
0	47257	759.21	300.21
0	47258	759.21	200.21
0	47351	760.21	400.21
0	47352	760.21	300.21
0	47353	760.21	200.21
0	47446	761.21	400.21
0	47447	761.21	300.21
0	47448	761.21	200.21
0	47541	762.21	400.21
0	47542	762.21	300.21
0	47543	762.21	200.21
0	47636	763.21	400.21
0	47637	763.21	300.21
0	47638	763.21	200.21
0	47731	764.21	400.21
0	47732	764.21	300.21
0	47733	764.21	200.21
0	47826	765.21	400.21
0	47827	765.21	300.21
0	47828	765.21	200.21
0	47921	766.21	400.21
0	47922	766.21	300.21
0	47923	766.21	200.21
0	48016	767.21	400.21
0	48017	767.21	300.21
0	48018	767.21	200.21
0	48111	768.21	400.21
0	48112	768.21	300.21
0	48113	768.21	200.21
0	48206	769.21	400.21
0	48207	769.21	300.21
0	48208	769.21	200.21
0	48301	770.21	400.21
0	48302	770.21	300.21
0	48303	770.21	200.21
0	48396	771.21	400.21
0	48397	771.21	300.21
0	48398	771.21	200.21
0	48491	772.21	400.21
0	48492	772.21	300.21
0	48493	772.21	200.21
0	48586	773.21	400.21
0	48587	773.21	300.21
0	48588	773.21	200.21
0	48681	774.21	400.21
0	48682	774.21	300.21
0	48683	774.21	200.21
0	48776	775.21	400.21
0	48777	775.21	300.21
0	48778	775.21	200.21
0	48871	776.21	400.21
0	48872	776.21	300.21
0	48873	776.21	200.21
0	48966	777.21	400.21
0	48967	777.21	300.21
0	48968	777.21	200.21
0	49061	778.21	400.21
0	49062	778.21	300.21
0	49063	778.21	200.21
0	49156	779.21	400.21
0	49157	779.21	300.21
0	49158	779.21	200.21
0	49251	780.21	400.21
0	49252	780.21	300.21
0	49253	780.21	200.21
0	49346	781.21	400.21
0	49347	781.21	300.21
0	49348	781.21	200.21
0	49441	782.21	400.21
0	49442	782.21	300.21
0	49443	782.21	200.21
0	49536	783.21	400.21
0	49537	783.21	300.21
0	49538	783.21	200.21
0	49631	784.21	400.21
0	49632	784.21	300.21
0	49633	784.21	200.21
0	49726	785.21	400.21
0	49727	785.21	300.21
0	49728	785.21	200.21
0	49821	786.21	400.21
0	49822	786.21	300.21
0	49823	786.21	200.21
0	49916	787.21	400.21
0	49917	787.21	300.21
0	49918	787.21	200.21
0	50011	788.21	400.21
0	50012	788.21	300.21
0	50013	788.21	200.21
0	50106	789.21	400.21
0	50107	789.21	300.21
0	50108	789.21	200.21
0	50201	790.21	400.21
0	50202	790.21	300.21
0	50203	790.21	200.21
0	50296	791.21	400.21
0	50297	791.21	300.21
0	50298	791.21	200.21
0	50391	792.21	400.21
0	50392	792.21	300.21
0	50393	792.21	200.21
0	50486	793.21	400.21
0	50487	793.21	300.21
0	50488	793.21	200.21
0	50581	794.21	400.21
0	50582	794.21	300.21
0	50583	794.21	200.21
0	50676	795.21	400.21
0	50677	795.21	300.21
0	50678	795.21	200.21
0	50771	796.21	400.21
0	50772	796.21	300.21
0	50773	796.21	200.21
0	50866	797.21	400.21
0	50867	797.21	300.21
0	50868	797.21	200.21
0	50961	798.21	400.21
0	50962	798.21	300.21
0	50963	798.21	200.21
0	51056	799.21	400.21
0	51057	799.21	300.21
0	51058	799.21	200.21
0	51151	800.21	400.21
0	51152	800.21	300.21
0	51153	800.21	200.21
0	51246	801.21	400.21
0	51247	801.21	300.21
0	51248	801.21	200.21
0	51341	802.21	400.21
0	51342	802.21	300.21
0	51343	802.21	200.21
0	51436	803.21	400.21
0	51437	803.21	300.21
0	51438	803.21	200.21
0	51531	804.21	400.21
0	51532	804.21	300.21
0	51533	804.21	200.21
0	51626	805.21	400.21
0	51627	805.21	300.21
0	51628	805.21	200.21
0	51721	806.21	400.21
0	51722	806.21	300.21
0	51723	806.21	200.21
0	51816	807.21	400.21
0	51817	807.21	300.21
0	51818	807.21	200.21
0	51911	808.21	400.21
0	51912	808.21	300.21
0	51913	808.21	200.21
0	52006	809.21	400.21
0	52007	809.21	300.21
0	52008	809.21	200.21
0	52101	810.21	400.21
0	52102	810.21	300.21
0	52103	810.21	200.21
0	52196	811.21	400.21
0	52197	811.21	300.21
0	52198	811.21	200.21
0	52291	812.21	400.21
0	52292	812.21	300.21
0	52293	812.21	200.21
0	52386	813.21	400.21
0	52387	813.21	300.21
0	52388	813.21	200.21
0	52481	814.21	400.21
0	52482	814.21	300.21
0	52483	814.21	200.21
0	52576	815.21	400.21
0	52577	815.21	300.21
0	52578	815.21	200.21
0	52671	816.21	400.21
0	52672	816.21	300.21
0	52673	816.21	200.21
0	52766	817.21	400.21
0	52767	817.21	300.21
0	52768	817.21	200.21
0	52861	818.21	400.21
0	52862	818.21	300.21
0	52863	818.21	200.21
0	52956	819.21	400.21
0	52957	819.21	300.21
0	52958	819.21	200.21
0	53051	820.21	400.21
0	53052	820.21	300.21
0	53053	820.21	200.21
0	53146	821.21	400.21
0	53147	821.21	300.21
0	53148	821.21	200.21
0	53241	822.21	400.21
0	53242	822.21	300.21
0	53243	822.21	200.21
0	53336	823.21	400.21
0	53337	823.21	300.21
0	53338	823.21	200.21
0	53431	824.21	400.21
0	53432	824.21	300.21
0	53433	824.21	200.21
0	53526	825.21	400.21
0	53527	825.21	300.21
0	53528	825.21	200.21
0	53621	826.21	400.21
0	53622	826.21	300.21
0	53623	826.21	200.21
0	53716	827.21	400.21
0	53717	827.21	300.21
0	53718	827.21	200.21
0	53811	828.21	400.21
0	53812	828.21	300.21
0	53813	828.21	200.21
0	53906	829.21	400.21
0	53907	829.21	300.21
0	53908	829.21	200.21
0	54001	830.21	400.21
0	54002	830.21	300.21
0	54003	830.21	200.21
0	58080	831.21	831.21
0	58081	831.21	830.21
0	58082	831.21	829.21
0	58083	831.21	828.21
0	58084	831.21	827.21
0	58085	831.21	826.21
0	58086	831.21	825.21
0	58087	831.21	824.21
0	58088	831.21	823.21
0	58089	831.21	822.21
0	58090	831.21	821.21
0	58091	831.21	820.21
0	58092	831.21	819.21
0	58093	831.21	818.21
0	58094	831.21	817.21
0	58095	831.21	816.21
0	58096	831.21	815.21
0	58097	831.21	814.21
0	58098	831.21	813.21
0	58099	831.21	812.21
0	58100	831.21	811.21
0	58101	831.21	810.21
0	58102	831.21	809.21
0	58103	831.21	808.21
0	58104	831.21	807.21
0	58105	831.21	806.21
0	58106	831.21	805.21
0	58107	831.21	804.21
0	58108	831.21	803.21
0	58109	831.21	802.21
0	58110	831.21	801.21
0	58111	831.21	800.21
0	58112	831.21	799.21
0	58113	831.21	798.21
0	58114	831.21	797.21
0	58115	831.21	796.21
0	58116	831.21	795.21
0	58117	831.21	794.21
0	58118	831.21	793.21
0	58119	831.21	792.21
0	58120	831.21	791.21
0	58121	831.21	790.21
0	58122	831.21	789.21
0	58123	831.21	788.21
0	58124	831.21	787.21
0	58125	831.21	786.21
0	58126	831.21	785.21
0	58127	831.21	784.21
0	58128	831.21	783.21
0	58129	831.21	782.21
0	58130	831.21	781.21
0	58131	831.21	780.21
0	58132	831.21	779.21
0	58133	831.21	778.21
0	58134	831.21	777.21
0	58135	831.21	776.21
0	58136	831.21	775.21
0	58137	831.21	774.21
0	58138	831.21	773.21
0	58139	831.21	772.21
0	58140	831.21	771.21
0	58141	831.21	770.21
0	58142	831.21	769.21
0	58143	831.21	768.21
0	58144	831.21	767.21
0	58145	831.21	766.21
0	58146	831.21	765.21
0	58147	831.21	764.21
0	58148	831.21	763.21
0	58149	831.21	762.21
0	58150	831.21	761.21
0	58151	831.21	760.21
0	58152	831.21	759.21
0	58153	831.21	758.21
0	58154	831.21	757.21
0	58155	831.21	756.21
0	58156	831.21	755.21
0	58157	831.21	754.21
0	58158	831.21	753.21
0	58159	831.21	752.21
0	58160	831.21	751.21
0	58161	831.21	750.21
0	58162	831.21	749.21
0	58163	831.21	748.21
0	58164	831.21	747.21
0	58165	831.21	746.21
0	58166	831.21	745.21
0	58167	831.21	744.21
0	58168	831.21	743.21
0	58169	831.21	742.21
0	58170	831.21	741.21
0	58171	831.21	740.21
0	58172	831.21	739.21
0	58173	831.21	738.21
0	58174	831.21	737.21
0	58175	831.21	736.21
0	58176	831.21	735.21
0	58177	831.21	734.21
0	58178	831.21	733.21
0	58179	831.21	732.21
0	58180	831.21	731.21
0	58181	831.21	730.21
0	58182	831.21	729.21
0	58183	831.21	728.21
0	58184	831.21	727.21
0	58185	831.21	726.21
0	58186	831.21	725.21
0	58187	831.21	724.21
0	58188	831.21	723.21
0	58189	831.21	722.21
0	58190	831.21	721.21
0	58191	831.21	720.21
0	58192	831.21	719.21
0	58193	831.21	718.21
0	58194	831.21	717.21
0	58195	831.21	716.21
0	58196	831.21	715.21
0	58197	831.21	714.21
0	58198	831.21	713.21
0	58199	831.21	712.21
0	58200	831.21	711.21
0	58201	831.21	710.21
0	58202	831.21	709.21
0	58203	831.21	708.21
0	58204	831.21	707.21
0	58205	831.21	706.21
0	58206	831.21	705.21
0	58207	831.21	704.21
0	58208	831.21	703.21
0	58209	831.21	702.21
0	58210	831.21	701.21
0	58211	831.21	700.21
0	58212	831.21	699.21
0	58213	831.21	698.21
0	58214	831.21	697.21
0	58215	831.21	696.21
0	58216	831.21	695.21
0	58217	831.21	694.21
0	58218	831.21	693.21
0	58219	831.21	692.21
0	58220	831.21	691.21
0	58221	831.21	690.21
0	58222	831.21	689.21
0	58223	831.21	688.21
0	58224	831.21	687.21
0	58225	831.21	686.21
0	58226	831.21	685.21
0	58227	831.21	684.21
0	58228	831.21	683.21
0	58229	831.21	682.21
0	58230	831.21	681.21
0	58231	831.21	680.21
0	58232	831.21	679.21
0	58233	831.21	678.21
0	58234	831.21	677.21
0	58235	831.21	676.21
0	58236	831.21	675.21
0	58237	831.21	674.21
0	58238	831.21	673.21
0	58239	831.21	672.21
0	58240	831.21	671.21
0	58241	831.21	670.21
0	58242	831.21	669.21
0	58243	831.21	668.21
0	58244	831.21	667.21
0	58245	831.21	666.21
0	58246	831.21	665.21
0	58247	831.21	664.21
0	58248	831.21	663.21
0	58249	831.21	662.21
0	58250	831.21	661.21
0	58251	831.21	660.21
0	58252	831.21	659.21
0	58253	831.21	658.21
0	58254	831.21	657.21
0	58255	831.21	656.21
0	58256	831.21	655.21
0	58257	831.21	654.21
0	58258	831.21	653.21
0	58259	831.21	652.21
0	58260	831.21	651.21
0	58261	831.21	650.21
0	58262	831.21	649.21
0	58263	831.21	648.21
0	58264	831.21	647.21
0	58265	831.21	646.21
0	58266	831.21	645.21
0	58267	831.21	644.21
0	58268	831.21	643.21
0	58269	831.21	642.21
0	58270	831.21	641.21
0	58271	831.21	640.21
0	58272	831.21	639.21
0	58273	831.21	638.21
0	58274	831.21	637.21
0	58275	831.21	636.21
0	58276	831.21	635.21
0	58277	831.21	634.21
0	58278	831.21	633.21
0	58279	831.21	632.21
0	58280	831.21	631.21
0	58281	831.21	630.21
0	58282	831.21	629.21
0	58283	831.21	628.21
0	58284	831.21	627.21
0	58285	831.21	626.21
0	58286	831.21	625.21
0	58287	831.21	624.21
0	58288	831.21	623.21
0	58289	831.21	622.21
0	58290	831.21	621.21
0	58291	831.21	620.21
0	58292	831.21	619.21
0	58293	831.21	618.21
0	58294	831.21	617.21
0	58295	831.21	616.21
0	58296	831.21	615.21
0	58297	831.21	614.21
0	58298	831.21	613.21
0	58299	831.21	612.21
0	58300	831.21	611.21
0	58301	831.21	610.21
0	58302	831.21	609.21
0	58303	831.21	608.21
0	58304	831.21	607.21
0	58305	831.21	606.21
0	58306	831.21	605.21
0	58307	831.21	604.21
0	58308	831.21	603.21
0	58309	831.21	602.21
0	58310	831.21	601.21
0	58311	831.21	600.21
0	58312	831.21	599.21
0	58313	831.21	598.21
0	58314	831.21	597.21
0	58315	831.21	596.21
0	58316	831.21	595.21
0	58317	831.21	594.21
0	58318	831.21	593.21
0	58319	831.21	592.21
0	58320	831.21	591.21
0	58321	831.21	590.21
0	58322	831.21	589.21
0	58323	831.21	588.21
0	58324	831.21	587.21
0	58325	831.21	586.21
0	58326	831.21	585.21
0	58327	831.21	584.21
0	58328	831.21	583.21
0	58329	831.21	582.21
0	58330	831.21	581.21
0	58331	831.21	580.21
0	58332	831.21	579.21
0	58333	831.21	578.21
0	58334	831.21	577.21
0	58335	831.21	576.21
0	58336	831.21	575.21
0	58337	831.21	574.21
0	58338	831.21	573.21
0	58339	831.21	572.21
0	58340	831.21	571.21
0	58341	831.21	570.21
0	58342	831.21	569.21
0	58343	831.21	568.21
0	58344	831.21	567.21
0	58345	831.21	566.21
0	58346	831.21	565.21
0	58347	831.21	564.21
0	58348	831.21	563.21
0	58349	831.21	562.21
0	58350	831.21	561.21
0	58351	831.21	560.21
0	58352	831.21	559.21
0	58353	831.21	558.21
0	58354	831.21	557.21
0	58355	831.21	556.21
0	58356	831.21	555.21
0	58357	831.21	554.21
0	58358	831.21	553.21
0	58359	831.21	552.21
0	58360	831.21	551.21
0	58361	831.21	550.21
0	58362	831.21	549.21
0	58363	831.21	548.21
0	58364	831.21	547.21
0	58365	831.21	546.21
0	58366	831.21	545.21
0	58367	831.21	544.21
0	58368	831.21	543.21
0	58369	831.21	542.21
0	58370	831.21	541.21
0	58371	831.21	540.21
0	58372	831.21	539.21
0	58373	831.21	538.21
0	58374	831.21	537.21
0	58375	831.21	536.21
0	58376	831.21	535.21
0	58377	831.21	534.21
0	58378	831.21	533.21
0	58379	831.21	532.21
0	58380	831.21	531.21
0	58381	831.21	530.21
0	58382	831.21	529.21
0	58383	831.21	528.21
0	58384	831.21	527.21
0	58385	831.21	526.21
0	58386	831.21	525.21
0	58387	831.21	524.21
0	58388	831.21	523.21
0	58389	831.21	522.21
0	58390	831.21	521.21
0	58391	831.21	520.21
0	58392	831.21	519.21
0	58393	831.21	518.21
0	58394	831.21	517.21
0	58395	831.21	516.21
0	58396	831.21	515.21
0	58397	831.21	514.21
0	58398	831.21	513.21
0	58399	831.21	512.21
0	58400	831.21	511.21
0	58401	831.21	510.21
0	58402	831.21	509.21
0	58403	831.21	508.21
0	58404	831.21	507.21
0	58405	831.21	506.21
0	58406	831.21	505.21
0	58407	831.21	504.21
0	58408	831.21	503.21
0	58409	831.21	502.21
0	58410	831.21	501.21
0	58411	831.21	500.21
0	58412	831.21	400.21
0	58413	831.21	300.21
0	58414	831.21	200.21
0	60843	832.21	500.21
0	60844	832.21	400.21
0	60845	832.21	300.21
0	60846	832.21	200.21
0	60958	833.21	500.21
0	60959	833.21	400.21
0	60960	833.21	300.21
0	60961	833.21	200.21
0	61073	834.21	500.21
0	61074	834.21	400.21
0	61075	834.21	300.21
0	61076	834.21	200.21
0	61188	835.21	500.21
0	61189	835.21	400.21
0	61190	835.21	300.21
0	61191	835.21	200.21
0	61303	836.21	500.21
0	61304	836.21	400.21
0	61305	836.21	300.21
0	61306	836.21	200.21
0	61418	837.21	500.21
0	61419	837.21	400.21
0	61420	837.21	300.21
0	61421	837.21	200.21
0	61533	838.21	500.21
0	61534	838.21	400.21
0	61535	838.21	300.21
0	61536	838.21	200.21
0	61648	839.21	500.21
0	61649	839.21	400.21
0	61650	839.21	300.21
0	61651	839.21	200.21
0	61763	840.21	500.21
0	61764	840.21	400.21
0	61765	840.21	300.21
0	61766	840.21	200.21
0	61878	841.21	500.21
0	61879	841.21	400.21
0	61880	841.21	300.21
0	61881	841.21	200.21
0	61993	842.21	500.21
0	61994	842.21	400.21
0	61995	842.21	300.21
0	61996	842.21	200.21
0	62108	843.21	500.21
0	62109	843.21	400.21
0	62110	843.21	300.21
0	62111	843.21	200.21
0	62223	844.21	500.21
0	62224	844.21	400.21
0	62225	844.21	300.21
0	62226	844.21	200.21
0	62338	845.21	500.21
0	62339	845.21	400.21
0	62340	845.21	300.21
0	62341	845.21	200.21
0	62453	846.21	500.21
0	62454	846.21	400.21
0	62455	846.21	300.21
0	62456	846.21	200.21
0	62568	847.21	500.21
0	62569	847.21	400.21
0	62570	847.21	300.21
0	62571	847.21	200.21
0	62683	848.21	500.21
0	62684	848.21	400.21
0	62685	848.21	300.21
0	62686	848.21	200.21
0	62798	849.21	500.21
0	62799	849.21	400.21
0	62800	849.21	300.21
0	62801	849.21	200.21
0	62913	850.21	500.21
0	62914	850.21	400.21
0	62915	850.21	300.21
0	62916	850.21	200.21
0	63028	851.21	500.21
0	63029	851.21	400.21
0	63030	851.21	300.21
0	63031	851.21	200.21
0	63143	852.21	500.21
0	63144	852.21	400.21
0	63145	852.21	300.21
0	63146	852.21	200.21
0	63258	853.21	500.21
0	63259	853.21	400.21
0	63260	853.21	300.21
0	63261	853.21	200.21
0	63373	854.21	500.21
0	63374	854.21	400.21
0	63375	854.21	300.21
0	63376	854.21	200.21
0	63488	855.21	500.21
0	63489	855.21	400.21
0	63490	855.21	300.21
0	63491	855.21	200.21
0	63603	856.21	500.21
0	63604	856.21	400.21
0	63605	856.21	300.21
0	63606	856.21	200.21
0	63718	857.21	500.21
0	63719	857.21	400.21
0	63720	857.21	300.21
0	63721	857.21	200.21
0	63833	858.21	500.21
0	63834	858.21	400.21
0	63835	858.21	300.21
0	63836	858.21	200.21
0	63948	859.21	500.21
0	63949	859.21	400.21
0	63950	859.21	300.21
0	63951	859.21	200.21
0	64063	860.21	500.21
0	64064	860.21	400.21
0	64065	860.21	300.21
0	64066	860.21	200.21
0	64178	861.21	500.21
0	64179	861.21	400.21
0	64180	861.21	300.21
0	64181	861.21	200.21
0	64293	862.21	500.21
0	64294	862.21	400.21
0	64295	862.21	300.21
0	64296	862.21	200.21
0	64408	863.21	500.21
0	64409	863.21	400.21
0	64410	863.21	300.21
0	64411	863.21	200.21
0	64523	864.21	500.21
0	64524	864.21	400.21
0	64525	864.21	300.21
0	64526	864.21	200.21
0	64638	865.21	500.21
0	64639	865.21	400.21
0	64640	865.21	300.21
0	64641	865.21	200.21
0	64753	866.21	500.21
0	64754	866.21	400.21
0	64755	866.21	300.21
0	64756	866.21	200.21
0	64868	867.21	500.21
0	64869	867.21	400.21
0	64870	867.21	300.21
0	64871	867.21	200.21
0	64983	868.21	500.21
0	64984	868.21	400.21
0	64985	868.21	300.21
0	64986	868.21	200.21
0	65098	869.21	500.21
0	65099	869.21	400.21
0	65100	869.21	300.21
0	65101	869.21	200.21
0	65213	870.21	500.21
0	65214	870.21	400.21
0	65215	870.21	300.21
0	65216	870.21	200.21
0	65328	871.21	500.21
0	65329	871.21	400.21
0	65330	871.21	300.21
0	65331	871.21	200.21
0	65443	872.21	500.21
0	65444	872.21	400.21
0	65445	872.21	300.21
0	65446	872.21	200.21
0	65558	873.21	500.21
0	65559	873.21	400.21
0	65560	873.21	300.21
0	65561	873.21	200.21
0	65673	874.21	500.21
0	65674	874.21	400.21
0	65675	874.21	300.21
0	65676	874.21	200.21
0	65788	875.21	500.21
0	65789	875.21	400.21
0	65790	875.21	300.21
0	65791	875.21	200.21
0	65903	876.21	500.21
0	65904	876.21	400.21
0	65905	876.21	300.21
0	65906	876.21	200.21
0	66018	877.21	500.21
0	66019	877.21	400.21
0	66020	877.21	300.21
0	66021	877.21	200.21
0	66133	878.21	500.21
0	66134	878.21	400.21
0	66135	878.21	300.21
0	66136	878.21	200.21
0	66248	879.21	500.21
0	66249	879.21	400.21
0	66250	879.21	300.21
0	66251	879.21	200.21
0	66363	880.21	500.21
0	66364	880.21	400.21
0	66365	880.21	300.21
0	66366	880.21	200.21
0	66478	881.21	500.21
0	66479	881.21	400.21
0	66480	881.21	300.21
0	66481	881.21	200.21
0	66593	882.21	500.21
0	66594	882.21	400.21
0	66595	882.21	300.21
0	66596	882.21	200.21
0	66708	883.21	500.21
0	66709	883.21	400.21
0	66710	883.21	300.21
0	66711	883.21	200.21
0	66823	884.21	500.21
0	66824	884.21	400.21
0	66825	884.21	300.21
0	66826	884.21	200.21
0	66938	885.21	500.21
0	66939	885.21	400.21
0	66940	885.21	300.21
0	66941	885.21	200.21
0	67053	886.21	500.21
0	67054	886.21	400.21
0	67055	886.21	300.21
0	67056	886.21	200.21
0	67168	887.21	500.21
0	67169	887.21	400.21
0	67170	887.21	300.21
0	67171	887.21	200.21
0	67283	888.21	500.21
0	67284	888.21	400.21
0	67285	888.21	300.21
0	67286	888.21	200.21
0	67398	889.21	500.21
0	67399	889.21	400.21
0	67400	889.21	300.21
0	67401	889.21	200.21
0	67513	890.21	500.21
0	67514	890.21	400.21
0	67515	890.21	300.21
0	67516	890.21	200.21
0	67628	891.21	500.21
0	67629	891.21	400.21
0	67630	891.21	300.21
0	67631	891.21	200.21
0	67743	892.21	500.21
0	67744	892.21	400.21
0	67745	892.21	300.21
0	67746	892.21	200.21
0	67858	893.21	500.21
0	67859	893.21	400.21
0	67860	893.21	300.21
0	67861	893.21	200.21
0	67973	894.21	500.21
0	67974	894.21	400.21
0	67975	894.21	300.21
0	67976	894.21	200.21
0	68088	895.21	500.21
0	68089	895.21	400.21
0	68090	895.21	300.21
0	68091	895.21	200.21
0	68203	896.21	500.21
0	68204	896.21	400.21
0	68205	896.21	300.21
0	68206	896.21	200.21
0	68318	897.21	500.21
0	68319	897.21	400.21
0	68320	897.21	300.21
0	68321	897.21	200.21
0	68433	898.21	500.21
0	68434	898.21	400.21
0	68435	898.21	300.21
0	68436	898.21	200.21
0	68548	899.21	500.21
0	68549	899.21	400.21
0	68550	899.21	300.21
0	68551	899.21	200.21
0	68663	900.21	500.21
0	68664	900.21	400.21
0	68665	900.21	300.21
0	68666	900.21	200.21
0	68778	901.21	500.21
0	68779	901.21	400.21
0	68780	901.21	300.21
0	68781	901.21	200.21
0	68893	902.21	500.21
0	68894	902.21	400.21
0	68895	902.21	300.21
0	68896	902.21	200.21
0	69008	903.21	500.21
0	69009	903.21	400.21
0	69010	903.21	300.21
0	69011	903.21	200.21
0	69123	904.21	500.21
0	69124	904.21	400.21
0	69125	904.21	300.21
0	69126	904.21	200.21
0	69238	905.21	500.21
0	69239	905.21	400.21
0	69240	905.21	300.21
0	69241	905.21	200.21
0	69353	906.21	500.21
0	69354	906.21	400.21
0	69355	906.21	300.21
0	69356	906.21	200.21
0	69468	907.21	500.21
0	69469	907.21	400.21
0	69470	907.21	300.21
0	69471	907.21	200.21
0	69583	908.21	500.21
0	69584	908.21	400.21
0	69585	908.21	300.21
0	69586	908.21	200.21
0	69698	909.21	500.21
0	69699	909.21	400.21
0	69700	909.21	300.21
0	69701	909.21	200.21
0	69813	910.21	500.21
0	69814	910.21	400.21
0	69815	910.21	300.21
0	69816	910.21	200.21
0	69928	911.21	500.21
0	69929	911.21	400.21
0	69930	911.21	300.21
0	69931	911.21	200.21
0	70043	912.21	500.21
0	70044	912.21	400.21
0	70045	912.21	300.21
0	70046	912.21	200.21
0	70158	913.21	500.21
0	70159	913.21	400.21
0	70160	913.21	300.21
0	70161	913.21	200.21
0	70273	914.21	500.21
0	70274	914.21	400.21
0	70275	914.21	300.21
0	70276	914.21	200.21
0	70388	915.21	500.21
0	70389	915.21	400.21
0	70390	915.21	300.21
0	70391	915.21	200.21
0	70503	916.21	500.21
0	70504	916.21	400.21
0	70505	916.21	300.21
0	70506	916.21	200.21
0	70618	917.21	500.21
0	70619	917.21	400.21
0	70620	917.21	300.21
0	70621	917.21	200.21
0	70733	918.21	500.21
0	70734	918.21	400.21
0	70735	918.21	300.21
0	70736	918.21	200.21
0	70848	919.21	500.21
0	70849	919.21	400.21
0	70850	919.21	300.21
0	70851	919.21	200.21
0	70963	920.21	500.21
0	70964	920.21	400.21
0	70965	920.21	300.21
0	70966	920.21	200.21
0	71078	921.21	500.21
0	71079	921.21	400.21
0	71080	921.21	300.21
0	71081	921.21	200.21
0	71193	922.21	500.21
0	71194	922.21	400.21
0	71195	922.21	300.21
0	71196	922.21	200.21
0	71308	923.21	500.21
0	71309	923.21	400.21
0	71310	923.21	300.21
0	71311	923.21	200.21
0	71423	924.21	500.21
0	71424	924.21	400.21
0	71425	924.21	300.21
0	71426	924.21	200.21
0	71538	925.21	500.21
0	71539	925.21	400.21
0	71540	925.21	300.21
0	71541	925.21	200.21
0	71653	926.21	500.21
0	71654	926.21	400.21
0	71655	926.21	300.21
0	71656	926.21	200.21
0	71768	927.21	500.21
0	71769	927.21	400.21
0	71770	927.21	300.21
0	71771	927.21	200.21
0	71883	928.21	500.21
0	71884	928.21	400.21
0	71885	928.21	300.21
0	71886	928.21	200.21
0	71998	929.21	500.21
0	71999	929.21	400.21
0	72000	929.21	300.21
0	72001	929.21	200.21
0	72113	930.21	500.21
0	72114	930.21	400.21
0	72115	930.21	300.21
0	72116	930.21	200.21
0	75880	931.21	931.21
0	75881	931.21	930.21
0	75882	931.21	929.21
0	75883	931.21	928.21
0	75884	931.21	927.21
0	75885	931.21	926.21
0	75886	931.21	925.21
0	75887	931.21	924.21
0	75888	931.21	923.21
0	75889	931.21	922.21
0	75890	931.21	921.21
0	75891	931.21	920.21
0	75892	931.21	919.21
0	75893	931.21	918.21
0	75894	931.21	917.21
0	75895	931.21	916.21
0	75896	931.21	915.21
0	75897	931.21	914.21
0	75898	931.21	913.21
0	75899	931.21	912.21
0	75900	931.21	911.21
0	75901	931.21	910.21
0	75902	931.21	909.21
0	75903	931.21	908.21
0	75904	931.21	907.21
0	75905	931.21	906.21
0	75906	931.21	905.21
0	75907	931.21	904.21
0	75908	931.21	903.21
0	75909	931.21	902.21
0	75910	931.21	901.21
0	75911	931.21	900.21
0	75912	931.21	899.21
0	75913	931.21	898.21
0	75914	931.21	897.21
0	75915	931.21	896.21
0	75916	931.21	895.21
0	75917	931.21	894.21
0	75918	931.21	893.21
0	75919	931.21	892.21
0	75920	931.21	891.21
0	75921	931.21	890.21
0	75922	931.21	889.21
0	75923	931.21	888.21
0	75924	931.21	887.21
0	75925	931.21	886.21
0	75926	931.21	885.21
0	75927	931.21	884.21
0	75928	931.21	883.21
0	75929	931.21	882.21
0	75930	931.21	881.21
0	75931	931.21	880.21
0	75932	931.21	879.21
0	75933	931.21	878.21
0	75934	931.21	877.21
0	75935	931.21	876.21
0	75936	931.21	875.21
0	75937	931.21	874.21
0	75938	931.21	873.21
0	75939	931.21	872.21
0	75940	931.21	871.21
0	75941	931.21	870.21
0	75942	931.21	869.21
0	75943	931.21	868.21
0	75944	931.21	867.21
0	75945	931.21	866.21
0	75946	931.21	865.21
0	75947	931.21	864.21
0	75948	931.21	863.21
0	75949	931.21	862.21
0	75950	931.21	861.21
0	75951	931.21	860.21
0	75952	931.21	859.21
0	75953	931.21	858.21
0	75954	931.21	857.21
0	75955	931.21	856.21
0	75956	931.21	855.21
0	75957	931.21	854.21
0	75958	931.21	853.21
0	75959	931.21	852.21
0	75960	931.21	851.21
0	75961	931.21	850.21
0	75962	931.21	849.21
0	75963	931.21	848.21
0	75964	931.21	847.21
0	75965	931.21	846.21
0	75966	931.21	845.21
0	75967	931.21	844.21
0	75968	931.21	843.21
0	75969	931.21	842.21
0	75970	931.21	841.21
0	75971	931.21	840.21
0	75972	931.21	839.21
0	75973	931.21	838.21
0	75974	931.21	837.21
0	75975	931.21	836.21
0	75976	931.21	835.21
0	75977	931.21	834.21
0	75978	931.21	833.21
0	75979	931.21	832.21
0	75980	931.21	831.21
0	75981	931.21	830.21
0	75982	931.21	829.21
0	75983	931.21	828.21
0	75984	931.21	827.21
0	75985	931.21	826.21
0	75986	931.21	825.21
0	75987	931.21	824.21
0	75988	931.21	823.21
0	75989	931.21	822.21
0	75990	931.21	821.21
0	75991	931.21	820.21
0	75992	931.21	819.21
0	75993	931.21	818.21
0	75994	931.21	817.21
0	75995	931.21	816.21
0	75996	931.21	815.21
0	75997	931.21	814.21
0	75998	931.21	813.21
0	75999	931.21	812.21
0	76000	931.21	811.21
0	76001	931.21	810.21
0	76002	931.21	809.21
0	76003	931.21	808.21
0	76004	931.21	807.21
0	76005	931.21	806.21
0	76006	931.21	805.21
0	76007	931.21	804.21
0	76008	931.21	803.21
0	76009	931.21	802.21
0	76010	931.21	801.21
0	76011	931.21	800.21
0	76012	931.21	799.21
0	76013	931.21	798.21
0	76014	931.21	797.21
0	76015	931.21	796.21
0	76016	931.21	795.21
0	76017	931.21	794.21
0	76018	931.21	793.21
0	76019	931.21	792.21
0	76020	931.21	791.21
0	76021	931.21	790.21
0	76022	931.21	789.21
0	76023	931.21	788.21
0	76024	931.21	787.21
0	76025	931.21	786.21
0	76026	931.21	785.21
0	76027	931.21	784.21
0	76028	931.21	783.21
0	76029	931.21	782.21
0	76030	931.21	781.21
0	76031	931.21	780.21
0	76032	931.21	779.21
0	76033	931.21	778.21
0	76034	931.21	777.21
0	76035	931.21	776.21
0	76036	931.21	775.21
0	76037	931.21	774.21
0	76038	931.21	773.21
0	76039	931.21	772.21
0	76040	931.21	771.21
0	76041	931.21	770.21
0	76042	931.21	769.21
0	76043	931.21	768.21
0	76044	931.21	767.21
0	76045	931.21	766.21
0	76046	931.21	765.21
0	76047	931.21	764.21
0	76048	931.21	763.21
0	76049	931.21	762.21
0	76050	931.21	761.21
0	76051	931.21	760.21
0	76052	931.21	759.21
0	76053	931.21	758.21
0	76054	931.21	757.21
0	76055	931.21	756.21
0	76056	931.21	755.21
0	76057	931.21	754.21
0	76058	931.21	753.21
0	76059	931.21	752.21
0	76060	931.21	751.21
0	76061	931.21	750.21
0	76062	931.21	749.21
0	76063	931.21	748.21
0	76064	931.21	747.21
0	76065	931.21	746.21
0	76066	931.21	745.21
0	76067	931.21	744.21
0	76068	931.21	743.21
0	76069	931.21	742.21
0	76070	931.21	741.21
0	76071	931.21	740.21
0	76072	931.21	739.21
0	76073	931.21	738.21
0	76074	931.21	737.21
0	76075	931.21	736.21
0	76076	931.21	735.21
0	76077	931.21	734.21
0	76078	931.21	733.21
0	76079	931.21	732.21
0	76080	931.21	731.21
0	76081	931.21	730.21
0	76082	931.21	729.21
0	76083	931.21	728.21
0	76084	931.21	727.21
0	76085	931.21	726.21
0	76086	931.21	725.21
0	76087	931.21	724.21
0	76088	931.21	723.21
0	76089	931.21	722.21
0	76090	931.21	721.21
0	76091	931.21	720.21
0	76092	931.21	719.21
0	76093	931.21	718.21
0	76094	931.21	717.21
0	76095	931.21	716.21
0	76096	931.21	715.21
0	76097	931.21	714.21
0	76098	931.21	713.21
0	76099	931.21	712.21
0	76100	931.21	711.21
0	76101	931.21	710.21
0	76102	931.21	709.21
0	76103	931.21	708.21
0	76104	931.21	707.21
0	76105	931.21	706.21
0	76106	931.21	705.21
0	76107	931.21	704.21
0	76108	931.21	703.21
0	76109	931.21	702.21
0	76110	931.21	701.21
0	76111	931.21	700.21
0	76112	931.21	699.21
0	76113	931.21	698.21
0	76114	931.21	697.21
0	76115	931.21	696.21
0	76116	931.21	695.21
0	76117	931.21	694.21
0	76118	931.21	693.21
0	76119	931.21	692.21
0	76120	931.21	691.21
0	76121	931.21	690.21
0	76122	931.21	689.21
0	76123	931.21	688.21
0	76124	931.21	687.21
0	76125	931.21	686.21
0	76126	931.21	685.21
0	76127	931.21	684.21
0	76128	931.21	683.21
0	76129	931.21	682.21
0	76130	931.21	681.21
0	76131	931.21	680.21
0	76132	931.21	679.21
0	76133	931.21	678.21
0	76134	931.21	677.21
0	76135	931.21	676.21
0	76136	931.21	675.21
0	76137	931.21	674.21
0	76138	931.21	673.21
0	76139	931.21	672.21
0	76140	931.21	671.21
0	76141	931.21	670.21
0	76142	931.21	669.21
0	76143	931.21	668.21
0	76144	931.21	667.21
0	76145	931.21	666.21
0	76146	931.21	665.21
0	76147	931.21	664.21
0	76148	931.21	663.21
0	76149	931.21	662.21
0	76150	931.21	661.21
0	76151	931.21	660.21
0	76152	931.21	659.21
0	76153	931.21	658.21
0	76154	931.21	657.21
0	76155	931.21	656.21
0	76156	931.21	655.21
0	76157	931.21	654.21
0	76158	931.21	653.21
0	76159	931.21	652.21
0	76160	931.21	651.21
0	76161	931.21	650.21
0	76162	931.21	649.21
0	76163	931.21	648.21
0	76164	931.21	647.21
0	76165	931.21	646.21
0	76166	931.21	645.21
0	76167	931.21	644.21
0	76168	931.21	643.21
0	76169	931.21	642.21
0	76170	931.21	641.21
0	76171	931.21	640.21
0	76172	931.21	639.21
0	76173	931.21	638.21
0	76174	931.21	637.21
0	76175	931.21	636.21
0	76176	931.21	635.21
0	76177	931.21	634.21
0	76178	931.21	633.21
0	76179	931.21	632.21
0	76180	931.21	631.21
0	76181	931.21	630.21
0	76182	931.21	629.21
0	76183	931.21	628.21
0	76184	931.21	627.21
0	76185	931.21	626.21
0	76186	931.21	625.21
0	76187	931.21	624.21
0	76188	931.21	623.21
0	76189	931.21	622.21
0	76190	931.21	621.21
0	76191	931.21	620.21
0	76192	931.21	619.21
0	76193	931.21	618.21
0	76194	931.21	617.21
0	76195	931.21	616.21
0	76196	931.21	615.21
0	76197	931.21	614.21
0	76198	931.21	613.21
0	76199	931.21	612.21
0	76200	931.21	611.21
0	76201	931.21	610.21
0	76202	931.21	609.21
0	76203	931.21	608.21
0	76204	931.21	607.21
0	76205	931.21	606.21
0	76206	931.21	605.21
0	76207	931.21	604.21
0	76208	931.21	603.21
0	76209	931.21	602.21
0	76210	931.21	601.21
0	76211	931.21	600.21
0	76212	931.21	500.21
0	76213	931.21	400.21
0	76214	931.21	300.21
0	76215	931.21	200.21
0	78662	932.21	600.21
0	78663	932.21	500.21
0	78664	932.21	400.21
0	78665	932.21	300.21
0	78666	932.21	200.21
0	78796	933.21	600.21
0	78797	933.21	500.21
0	78798	933.21	400.21
0	78799	933.21	300.21
0	78800	933.21	200.21
0	78930	934.21	600.21
0	78931	934.21	500.21
0	78932	934.21	400.21
0	78933	934.21	300.21
0	78934	934.21	200.21
0	79064	935.21	600.21
0	79065	935.21	500.21
0	79066	935.21	400.21
0	79067	935.21	300.21
0	79068	935.21	200.21
0	79198	936.21	600.21
0	79199	936.21	500.21
0	79200	936.21	400.21
0	79201	936.21	300.21
0	79202	936.21	200.21
0	79332	937.21	600.21
0	79333	937.21	500.21
0	79334	937.21	400.21
0	79335	937.21	300.21
0	79336	937.21	200.21
0	79466	938.21	600.21
0	79467	938.21	500.21
0	79468	938.21	400.21
0	79469	938.21	300.21
0	79470	938.21	200.21
0	79600	939.21	600.21
0	79601	939.21	500.21
0	79602	939.21	400.21
0	79603	939.21	300.21
0	79604	939.21	200.21
0	79734	940.21	600.21
0	79735	940.21	500.21
0	79736	940.21	400.21
0	79737	940.21	300.21
0	79738	940.21	200.21
0	79868	941.21	600.21
0	79869	941.21	500.21
0	79870	941.21	400.21
0	79871	941.21	300.21
0	79872	941.21	200.21
0	80002	942.21	600.21
0	80003	942.21	500.21
0	80004	942.21	400.21
0	80005	942.21	300.21
0	80006	942.21	200.21
0	80136	943.21	600.21
0	80137	943.21	500.21
0	80138	943.21	400.21
0	80139	943.21	300.21
0	80140	943.21	200.21
0	80270	944.21	600.21
0	80271	944.21	500.21
0	80272	944.21	400.21
0	80273	944.21	300.21
0	80274	944.21	200.21
0	80404	945.21	600.21
0	80405	945.21	500.21
0	80406	945.21	400.21
0	80407	945.21	300.21
0	80408	945.21	200.21
0	80538	946.21	600.21
0	80539	946.21	500.21
0	80540	946.21	400.21
0	80541	946.21	300.21
0	80542	946.21	200.21
0	80672	947.21	600.21
0	80673	947.21	500.21
0	80674	947.21	400.21
0	80675	947.21	300.21
0	80676	947.21	200.21
0	80806	948.21	600.21
0	80807	948.21	500.21
0	80808	948.21	400.21
0	80809	948.21	300.21
0	80810	948.21	200.21
0	80940	949.21	600.21
0	80941	949.21	500.21
0	80942	949.21	400.21
0	80943	949.21	300.21
0	80944	949.21	200.21
0	81074	950.21	600.21
0	81075	950.21	500.21
0	81076	950.21	400.21
0	81077	950.21	300.21
0	81078	950.21	200.21
0	81208	951.21	600.21
0	81209	951.21	500.21
0	81210	951.21	400.21
0	81211	951.21	300.21
0	81212	951.21	200.21
0	81342	952.21	600.21
0	81343	952.21	500.21
0	81344	952.21	400.21
0	81345	952.21	300.21
0	81346	952.21	200.21
0	81476	953.21	600.21
0	81477	953.21	500.21
0	81478	953.21	400.21
0	81479	953.21	300.21
0	81480	953.21	200.21
0	81610	954.21	600.21
0	81611	954.21	500.21
0	81612	954.21	400.21
0	81613	954.21	300.21
0	81614	954.21	200.21
0	81744	955.21	600.21
0	81745	955.21	500.21
0	81746	955.21	400.21
0	81747	955.21	300.21
0	81748	955.21	200.21
0	81878	956.21	600.21
0	81879	956.21	500.21
0	81880	956.21	400.21
0	81881	956.21	300.21
0	81882	956.21	200.21
0	82012	957.21	600.21
0	82013	957.21	500.21
0	82014	957.21	400.21
0	82015	957.21	300.21
0	82016	957.21	200.21
0	82146	958.21	600.21
0	82147	958.21	500.21
0	82148	958.21	400.21
0	82149	958.21	300.21
0	82150	958.21	200.21
0	82280	959.21	600.21
0	82281	959.21	500.21
0	82282	959.21	400.21
0	82283	959.21	300.21
0	82284	959.21	200.21
0	82414	960.21	600.21
0	82415	960.21	500.21
0	82416	960.21	400.21
0	82417	960.21	300.21
0	82418	960.21	200.21
0	82548	961.21	600.21
0	82549	961.21	500.21
0	82550	961.21	400.21
0	82551	961.21	300.21
0	82552	961.21	200.21
0	82682	962.21	600.21
0	82683	962.21	500.21
0	82684	962.21	400.21
0	82685	962.21	300.21
0	82686	962.21	200.21
0	82816	963.21	600.21
0	82817	963.21	500.21
0	82818	963.21	400.21
0	82819	963.21	300.21
0	82820	963.21	200.21
0	82950	964.21	600.21
0	82951	964.21	500.21
0	82952	964.21	400.21
0	82953	964.21	300.21
0	82954	964.21	200.21
0	83084	965.21	600.21
0	83085	965.21	500.21
0	83086	965.21	400.21
0	83087	965.21	300.21
0	83088	965.21	200.21
0	83218	966.21	600.21
0	83219	966.21	500.21
0	83220	966.21	400.21
0	83221	966.21	300.21
0	83222	966.21	200.21
0	83352	967.21	600.21
0	83353	967.21	500.21
0	83354	967.21	400.21
0	83355	967.21	300.21
0	83356	967.21	200.21
0	83486	968.21	600.21
0	83487	968.21	500.21
0	83488	968.21	400.21
0	83489	968.21	300.21
0	83490	968.21	200.21
0	83620	969.21	600.21
0	83621	969.21	500.21
0	83622	969.21	400.21
0	83623	969.21	300.21
0	83624	969.21	200.21
0	83754	970.21	600.21
0	83755	970.21	500.21
0	83756	970.21	400.21
0	83757	970.21	300.21
0	83758	970.21	200.21
0	83888	971.21	600.21
0	83889	971.21	500.21
0	83890	971.21	400.21
0	83891	971.21	300.21
0	83892	971.21	200.21
0	84022	972.21	600.21
0	84023	972.21	500.21
0	84024	972.21	400.21
0	84025	972.21	300.21
0	84026	972.21	200.21
0	84156	973.21	600.21
0	84157	973.21	500.21
0	84158	973.21	400.21
0	84159	973.21	300.21
0	84160	973.21	200.21
0	84290	974.21	600.21
0	84291	974.21	500.21
0	84292	974.21	400.21
0	84293	974.21	300.21
0	84294	974.21	200.21
0	84424	975.21	600.21
0	84425	975.21	500.21
0	84426	975.21	400.21
0	84427	975.21	300.21
0	84428	975.21	200.21
0	84558	976.21	600.21
0	84559	976.21	500.21
0	84560	976.21	400.21
0	84561	976.21	300.21
0	84562	976.21	200.21
0	84692	977.21	600.21
0	84693	977.21	500.21
0	84694	977.21	400.21
0	84695	977.21	300.21
0	84696	977.21	200.21
0	84826	978.21	600.21
0	84827	978.21	500.21
0	84828	978.21	400.21
0	84829	978.21	300.21
0	84830	978.21	200.21
0	84960	979.21	600.21
0	84961	979.21	500.21
0	84962	979.21	400.21
0	84963	979.21	300.21
0	84964	979.21	200.21
0	85094	980.21	600.21
0	85095	980.21	500.21
0	85096	980.21	400.21
0	85097	980.21	300.21
0	85098	980.21	200.21
0	85228	981.21	600.21
0	85229	981.21	500.21
0	85230	981.21	400.21
0	85231	981.21	300.21
0	85232	981.21	200.21
0	85362	982.21	600.21
0	85363	982.21	500.21
0	85364	982.21	400.21
0	85365	982.21	300.21
0	85366	982.21	200.21
0	85496	983.21	600.21
0	85497	983.21	500.21
0	85498	983.21	400.21
0	85499	983.21	300.21
0	85500	983.21	200.21
0	85630	984.21	600.21
0	85631	984.21	500.21
0	85632	984.21	400.21
0	85633	984.21	300.21
0	85634	984.21	200.21
0	85764	985.21	600.21
0	85765	985.21	500.21
0	85766	985.21	400.21
0	85767	985.21	300.21
0	85768	985.21	200.21
0	85898	986.21	600.21
0	85899	986.21	500.21
0	85900	986.21	400.21
0	85901	986.21	300.21
0	85902	986.21	200.21
0	86032	987.21	600.21
0	86033	987.21	500.21
0	86034	987.21	400.21
0	86035	987.21	300.21
0	86036	987.21	200.21
0	86166	988.21	600.21
0	86167	988.21	500.21
0	86168	988.21	400.21
0	86169	988.21	300.21
0	86170	988.21	200.21
0	86300	989.21	600.21
0	86301	989.21	500.21
0	86302	989.21	400.21
0	86303	989.21	300.21
0	86304	989.21	200.21
0	86434	990.21	600.21
0	86435	990.21	500.21
0	86436	990.21	400.21
0	86437	990.21	300.21
0	86438	990.21	200.21
0	86568	991.21	600.21
0	86569	991.21	500.21
0	86570	991.21	400.21
0	86571	991.21	300.21
0	86572	991.21	200.21
0	86702	992.21	600.21
0	86703	992.21	500.21
0	86704	992.21	400.21
0	86705	992.21	300.21
0	86706	992.21	200.21
0	86836	993.21	600.21
0	86837	993.21	500.21
0	86838	993.21	400.21
0	86839	993.21	300.21
0	86840	993.21	200.21
0	86970	994.21	600.21
0	86971	994.21	500.21
0	86972	994.21	400.21
0	86973	994.21	300.21
0	86974	994.21	200.21
0	87104	995.21	600.21
0	87105	995.21	500.21
0	87106	995.21	400.21
0	87107	995.21	300.21
0	87108	995.21	200.21
0	87238	996.21	600.21
0	87239	996.21	500.21
0	87240	996.21	400.21
0	87241	996.21	300.21
0	87242	996.21	200.21
0	87372	997.21	600.21
0	87373	997.21	500.21
0	87374	997.21	400.21
0	87375	997.21	300.21
0	87376	997.21	200.21
0	87506	998.21	600.21
0	87507	998.21	500.21
0	87508	998.21	400.21
0	87509	998.21	300.21
0	87510	998.21	200.21
0	87640	999.21	600.21
0	87641	999.21	500.21
0	87642	999.21	400.21
0	87643	999.21	300.21
0	87644	999.21	200.21
0	87774	1000.21	600.21
0	87775	1000.21	500.21
0	87776	1000.21	400.21
0	87777	1000.21	300.21
0	87778	1000.21	200.21
0	87908	1001.21	600.21
0	87909	1001.21	500.21
0	87910	1001.21	400.21
0	87911	1001.21	300.21
0	87912	1001.21	200.21
0	88042	1002.21	600.21
0	88043	1002.21	500.21
0	88044	1002.21	400.21
0	88045	1002.21	300.21
0	88046	1002.21	200.21
0	88176	1003.21	600.21
0	88177	1003.21	500.21
0	88178	1003.21	400.21
0	88179	1003.21	300.21
0	88180	1003.21	200.21
0	88310	1004.21	600.21
0	88311	1004.21	500.21
0	88312	1004.21	400.21
0	88313	1004.21	300.21
0	88314	1004.21	200.21
0	88444	1005.21	600.21
0	88445	1005.21	500.21
0	88446	1005.21	400.21
0	88447	1005.21	300.21
0	88448	1005.21	200.21
0	88578	1006.21	600.21
0	88579	1006.21	500.21
0	88580	1006.21	400.21
0	88581	1006.21	300.21
0	88582	1006.21	200.21
0	88712	1007.21	600.21
0	88713	1007.21	500.21
0	88714	1007.21	400.21
0	88715	1007.21	300.21
0	88716	1007.21	200.21
0	88846	1008.21	600.21
0	88847	1008.21	500.21
0	88848	1008.21	400.21
0	88849	1008.21	300.21
0	88850	1008.21	200.21
0	88980	1009.21	600.21
0	88981	1009.21	500.21
0	88982	1009.21	400.21
0	88983	1009.21	300.21
0	88984	1009.21	200.21
0	89114	1010.21	600.21
0	89115	1010.21	500.21
0	89116	1010.21	400.21
0	89117	1010.21	300.21
0	89118	1010.21	200.21
0	89248	1011.21	600.21
0	89249	1011.21	500.21
0	89250	1011.21	400.21
0	89251	1011.21	300.21
0	89252	1011.21	200.21
0	89382	1012.21	600.21
0	89383	1012.21	500.21
0	89384	1012.21	400.21
0	89385	1012.21	300.21
0	89386	1012.21	200.21
0	89516	1013.21	600.21
0	89517	1013.21	500.21
0	89518	1013.21	400.21
0	89519	1013.21	300.21
0	89520	1013.21	200.21
0	89650	1014.21	600.21
0	89651	1014.21	500.21
0	89652	1014.21	400.21
0	89653	1014.21	300.21
0	89654	1014.21	200.21
0	89784	1015.21	600.21
0	89785	1015.21	500.21
0	89786	1015.21	400.21
0	89787	1015.21	300.21
0	89788	1015.21	200.21
0	89918	1016.21	600.21
0	89919	1016.21	500.21
0	89920	1016.21	400.21
0	89921	1016.21	300.21
0	89922	1016.21	200.21
0	90052	1017.21	600.21
0	90053	1017.21	500.21
0	90054	1017.21	400.21
0	90055	1017.21	300.21
0	90056	1017.21	200.21
0	90186	1018.21	600.21
0	90187	1018.21	500.21
0	90188	1018.21	400.21
0	90189	1018.21	300.21
0	90190	1018.21	200.21
0	90320	1019.21	600.21
0	90321	1019.21	500.21
0	90322	1019.21	400.21
0	90323	1019.21	300.21
0	90324	1019.21	200.21
0	90454	1020.21	600.21
0	90455	1020.21	500.21
0	90456	1020.21	400.21
0	90457	1020.21	300.21
0	90458	1020.21	200.21
0	90588	1021.21	600.21
0	90589	1021.21	500.21
0	90590	1021.21	400.21
0	90591	1021.21	300.21
0	90592	1021.21	200.21
0	90722	1022.21	600.21
0	90723	1022.21	500.21
0	90724	1022.21	400.21
0	90725	1022.21	300.21
0	90726	1022.21	200.21
0	90856	1023.21	600.21
0	90857	1023.21	500.21
0	90858	1023.21	400.21
0	90859	1023.21	300.21
0	90860	1023.21	200.21
0	90990	1024.21	600.21
0	90991	1024.21	500.21
0	90992	1024.21	400.21
0	90993	1024.21	300.21
0	90994	1024.21	200.21
0	91124	1025.21	600.21
0	91125	1025.21	500.21
0	91126	1025.21	400.21
0	91127	1025.21	300.21
0	91128	1025.21	200.21
0	91258	1026.21	600.21
0	91259	1026.21	500.21
0	91260	1026.21	400.21
0	91261	1026.21	300.21
0	91262	1026.21	200.21
0	91392	1027.21	600.21
0	91393	1027.21	500.21
0	91394	1027.21	400.21
0	91395	1027.21	300.21
0	91396	1027.21	200.21
0	91526	1028.21	600.21
0	91527	1028.21	500.21
0	91528	1028.21	400.21
0	91529	1028.21	300.21
0	91530	1028.21	200.21
0	91660	1029.21	600.21
0	91661	1029.21	500.21
0	91662	1029.21	400.21
0	91663	1029.21	300.21
0	91664	1029.21	200.21
0	91794	1030.21	600.21
0	91795	1030.21	500.21
0	91796	1030.21	400.21
0	91797	1030.21	300.21
0	91798	1030.21	200.21
0	92260	1031.21	600.21
0	92261	1031.21	500.21
0	92262	1031.21	400.21
0	92263	1031.21	300.21
0	92264	1031.21	200.21
0	93059	1032.21	600.21
0	93060	1032.21	500.21
0	93061	1032.21	400.21
0	93062	1032.21	300.21
0	93063	1032.21	200.21
0	93196	1033.21	600.21
0	93197	1033.21	500.21
0	93198	1033.21	400.21
0	93199	1033.21	300.21
0	93200	1033.21	200.21
0	93333	1034.21	600.21
0	93334	1034.21	500.21
0	93335	1034.21	400.21
0	93336	1034.21	300.21
0	93337	1034.21	200.21
0	93470	1035.21	600.21
0	93471	1035.21	500.21
0	93472	1035.21	400.21
0	93473	1035.21	300.21
0	93474	1035.21	200.21
0	93607	1036.21	600.21
0	93608	1036.21	500.21
0	93609	1036.21	400.21
0	93610	1036.21	300.21
0	93611	1036.21	200.21
0	93744	1037.21	600.21
0	93745	1037.21	500.21
0	93746	1037.21	400.21
0	93747	1037.21	300.21
0	93748	1037.21	200.21
0	93881	1038.21	600.21
0	93882	1038.21	500.21
0	93883	1038.21	400.21
0	93884	1038.21	300.21
0	93885	1038.21	200.21
0	94018	1039.21	600.21
0	94019	1039.21	500.21
0	94020	1039.21	400.21
0	94021	1039.21	300.21
0	94022	1039.21	200.21
0	94155	1040.21	600.21
0	94156	1040.21	500.21
0	94157	1040.21	400.21
0	94158	1040.21	300.21
0	94159	1040.21	200.21
0	94292	1041.21	600.21
0	94293	1041.21	500.21
0	94294	1041.21	400.21
0	94295	1041.21	300.21
0	94296	1041.21	200.21
0	94429	1042.21	600.21
0	94430	1042.21	500.21
0	94431	1042.21	400.21
0	94432	1042.21	300.21
0	94433	1042.21	200.21
0	94566	1043.21	600.21
0	94567	1043.21	500.21
0	94568	1043.21	400.21
0	94569	1043.21	300.21
0	94570	1043.21	200.21
0	94703	1044.21	600.21
0	94704	1044.21	500.21
0	94705	1044.21	400.21
0	94706	1044.21	300.21
0	94707	1044.21	200.21
0	94840	1045.21	600.21
0	94841	1045.21	500.21
0	94842	1045.21	400.21
0	94843	1045.21	300.21
0	94844	1045.21	200.21
0	94977	1046.21	600.21
0	94978	1046.21	500.21
0	94979	1046.21	400.21
0	94980	1046.21	300.21
0	94981	1046.21	200.21
0	95114	1047.21	600.21
0	95115	1047.21	500.21
0	95116	1047.21	400.21
0	95117	1047.21	300.21
0	95118	1047.21	200.21
0	95251	1048.21	600.21
0	95252	1048.21	500.21
0	95253	1048.21	400.21
0	95254	1048.21	300.21
0	95255	1048.21	200.21
0	95388	1049.21	600.21
0	95389	1049.21	500.21
0	95390	1049.21	400.21
0	95391	1049.21	300.21
0	95392	1049.21	200.21
0	95525	1050.21	600.21
0	95526	1050.21	500.21
0	95527	1050.21	400.21
0	95528	1050.21	300.21
0	95529	1050.21	200.21
0	95662	1051.21	600.21
0	95663	1051.21	500.21
0	95664	1051.21	400.21
0	95665	1051.21	300.21
0	95666	1051.21	200.21
0	95799	1052.21	600.21
0	95800	1052.21	500.21
0	95801	1052.21	400.21
0	95802	1052.21	300.21
0	95803	1052.21	200.21
0	95936	1053.21	600.21
0	95937	1053.21	500.21
0	95938	1053.21	400.21
0	95939	1053.21	300.21
0	95940	1053.21	200.21
0	96073	1054.21	600.21
0	96074	1054.21	500.21
0	96075	1054.21	400.21
0	96076	1054.21	300.21
0	96077	1054.21	200.21
0	96210	1055.21	600.21
0	96211	1055.21	500.21
0	96212	1055.21	400.21
0	96213	1055.21	300.21
0	96214	1055.21	200.21
0	96347	1056.21	600.21
0	96348	1056.21	500.21
0	96349	1056.21	400.21
0	96350	1056.21	300.21
0	96351	1056.21	200.21
0	96484	1057.21	600.21
0	96485	1057.21	500.21
0	96486	1057.21	400.21
0	96487	1057.21	300.21
0	96488	1057.21	200.21
0	96621	1058.21	600.21
0	96622	1058.21	500.21
0	96623	1058.21	400.21
0	96624	1058.21	300.21
0	96625	1058.21	200.21
0	96758	1059.21	600.21
0	96759	1059.21	500.21
0	96760	1059.21	400.21
0	96761	1059.21	300.21
0	96762	1059.21	200.21
0	96895	1060.21	600.21
0	96896	1060.21	500.21
0	96897	1060.21	400.21
0	96898	1060.21	300.21
0	96899	1060.21	200.21
0	97032	1061.21	600.21
0	97033	1061.21	500.21
0	97034	1061.21	400.21
0	97035	1061.21	300.21
0	97036	1061.21	200.21
0	97169	1062.21	600.21
0	97170	1062.21	500.21
0	97171	1062.21	400.21
0	97172	1062.21	300.21
0	97173	1062.21	200.21
0	97306	1063.21	600.21
0	97307	1063.21	500.21
0	97308	1063.21	400.21
0	97309	1063.21	300.21
0	97310	1063.21	200.21
0	97443	1064.21	600.21
0	97444	1064.21	500.21
0	97445	1064.21	400.21
0	97446	1064.21	300.21
0	97447	1064.21	200.21
0	97580	1065.21	600.21
0	97581	1065.21	500.21
0	97582	1065.21	400.21
0	97583	1065.21	300.21
0	97584	1065.21	200.21
0	97717	1066.21	600.21
0	97718	1066.21	500.21
0	97719	1066.21	400.21
0	97720	1066.21	300.21
0	97721	1066.21	200.21
0	97854	1067.21	600.21
0	97855	1067.21	500.21
0	97856	1067.21	400.21
0	97857	1067.21	300.21
0	97858	1067.21	200.21
0	97991	1068.21	600.21
0	97992	1068.21	500.21
0	97993	1068.21	400.21
0	97994	1068.21	300.21
0	97995	1068.21	200.21
0	98128	1069.21	600.21
0	98129	1069.21	500.21
0	98130	1069.21	400.21
0	98131	1069.21	300.21
0	98132	1069.21	200.21
0	98265	1070.21	600.21
0	98266	1070.21	500.21
0	98267	1070.21	400.21
0	98268	1070.21	300.21
0	98269	1070.21	200.21
0	98402	1071.21	600.21
0	98403	1071.21	500.21
0	98404	1071.21	400.21
0	98405	1071.21	300.21
0	98406	1071.21	200.21
0	98539	1072.21	600.21
0	98540	1072.21	500.21
0	98541	1072.21	400.21
0	98542	1072.21	300.21
0	98543	1072.21	200.21
0	98676	1073.21	600.21
0	98677	1073.21	500.21
0	98678	1073.21	400.21
0	98679	1073.21	300.21
0	98680	1073.21	200.21
0	98813	1074.21	600.21
0	98814	1074.21	500.21
0	98815	1074.21	400.21
0	98816	1074.21	300.21
0	98817	1074.21	200.21
0	98950	1075.21	600.21
0	98951	1075.21	500.21
0	98952	1075.21	400.21
0	98953	1075.21	300.21
0	98954	1075.21	200.21
0	99087	1076.21	600.21
0	99088	1076.21	500.21
0	99089	1076.21	400.21
0	99090	1076.21	300.21
0	99091	1076.21	200.21
0	99224	1077.21	600.21
0	99225	1077.21	500.21
0	99226	1077.21	400.21
0	99227	1077.21	300.21
0	99228	1077.21	200.21
0	99361	1078.21	600.21
0	99362	1078.21	500.21
0	99363	1078.21	400.21
0	99364	1078.21	300.21
0	99365	1078.21	200.21
0	99498	1079.21	600.21
0	99499	1079.21	500.21
0	99500	1079.21	400.21
0	99501	1079.21	300.21
0	99502	1079.21	200.21
0	99635	1080.21	600.21
0	99636	1080.21	500.21
0	99637	1080.21	400.21
0	99638	1080.21	300.21
0	99639	1080.21	200.21
0	99772	1081.21	600.21
0	99773	1081.21	500.21
0	99774	1081.21	400.21
0	99775	1081.21	300.21
0	99776	1081.21	200.21
0	99909	1082.21	600.21
0	99910	1082.21	500.21
0	99911	1082.21	400.21
0	99912	1082.21	300.21
0	99913	1082.21	200.21
0	100046	1083.21	600.21
0	100047	1083.21	500.21
0	100048	1083.21	400.21
0	100049	1083.21	300.21
0	100050	1083.21	200.21
0	100183	1084.21	600.21
0	100184	1084.21	500.21
0	100185	1084.21	400.21
0	100186	1084.21	300.21
0	100187	1084.21	200.21
0	100320	1085.21	600.21
0	100321	1085.21	500.21
0	100322	1085.21	400.21
0	100323	1085.21	300.21
0	100324	1085.21	200.21
0	100457	1086.21	600.21
0	100458	1086.21	500.21
0	100459	1086.21	400.21
0	100460	1086.21	300.21
0	100461	1086.21	200.21
0	100594	1087.21	600.21
0	100595	1087.21	500.21
0	100596	1087.21	400.21
0	100597	1087.21	300.21
0	100598	1087.21	200.21
0	100731	1088.21	600.21
0	100732	1088.21	500.21
0	100733	1088.21	400.21
0	100734	1088.21	300.21
0	100735	1088.21	200.21
0	100868	1089.21	600.21
0	100869	1089.21	500.21
0	100870	1089.21	400.21
0	100871	1089.21	300.21
0	100872	1089.21	200.21
0	101005	1090.21	600.21
0	101006	1090.21	500.21
0	101007	1090.21	400.21
0	101008	1090.21	300.21
0	101009	1090.21	200.21
0	101142	1091.21	600.21
0	101143	1091.21	500.21
0	101144	1091.21	400.21
0	101145	1091.21	300.21
0	101146	1091.21	200.21
0	101279	1092.21	600.21
0	101280	1092.21	500.21
0	101281	1092.21	400.21
0	101282	1092.21	300.21
0	101283	1092.21	200.21
0	101416	1093.21	600.21
0	101417	1093.21	500.21
0	101418	1093.21	400.21
0	101419	1093.21	300.21
0	101420	1093.21	200.21
0	101553	1094.21	600.21
0	101554	1094.21	500.21
0	101555	1094.21	400.21
0	101556	1094.21	300.21
0	101557	1094.21	200.21
0	101690	1095.21	600.21
0	101691	1095.21	500.21
0	101692	1095.21	400.21
0	101693	1095.21	300.21
0	101694	1095.21	200.21
0	101827	1096.21	600.21
0	101828	1096.21	500.21
0	101829	1096.21	400.21
0	101830	1096.21	300.21
0	101831	1096.21	200.21
0	101964	1097.21	600.21
0	101965	1097.21	500.21
0	101966	1097.21	400.21
0	101967	1097.21	300.21
0	101968	1097.21	200.21
0	102101	1098.21	600.21
[...]
0	255921	2241.21	300.21
0	256015	2242.21	600.21
0	256016	2242.21	500.21
0	256017	2242.21	400.21
0	256018	2242.21	300.21
0	256112	2243.21	600.21
0	256113	2243.21	500.21
0	256114	2243.21	400.21
0	256115	2243.21	300.21
0	256209	2244.21	600.21
0	256210	2244.21	500.21
0	256211	2244.21	400.21
0	256212	2244.21	300.21
0	256306	2245.21	600.21
0	256307	2245.21	500.21
0	256308	2245.21	400.21
0	256309	2245.21	300.21
0	256403	2246.21	600.21
0	256404	2246.21	500.21
0	256405	2246.21	400.21
0	256406	2246.21	300.21
0	256500	2247.21	600.21
0	256501	2247.21	500.21
0	256502	2247.21	400.21
0	256503	2247.21	300.21
0	256597	2248.21	600.21
0	256598	2248.21	500.21
0	256599	2248.21	400.21
0	256600	2248.21	300.21
0	256694	2249.21	600.21
0	256695	2249.21	500.21
0	256696	2249.21	400.21
0	256697	2249.21	300.21
0	256791	2250.21	600.21
0	256792	2250.21	500.21
0	256793	2250.21	400.21
0	256794	2250.21	300.21
0	256888	2251.21	600.21
0	256889	2251.21	500.21
0	256890	2251.21	400.21
0	256891	2251.21	300.21
0	256985	2252.21	600.21
0	256986	2252.21	500.21
0	256987	2252.21	400.21
0	256988	2252.21	300.21
0	257082	2253.21	600.21
0	257083	2253.21	500.21
0	257084	2253.21	400.21
0	257085	2253.21	300.21
0	257179	2254.21	600.21
0	257180	2254.21	500.21
0	257181	2254.21	400.21
0	257182	2254.21	300.21
0	257276	2255.21	600.21
0	257277	2255.21	500.21
0	257278	2255.21	400.21
0	257279	2255.21	300.21
0	257373	2256.21	600.21
0	257374	2256.21	500.21
0	257375	2256.21	400.21
0	257376	2256.21	300.21
0	257470	2257.21	600.21
0	257471	2257.21	500.21
0	257472	2257.21	400.21
0	257473	2257.21	300.21
0	257567	2258.21	600.21
0	257568	2258.21	500.21
0	257569	2258.21	400.21
0	257570	2258.21	300.21
0	257664	2259.21	600.21
0	257665	2259.21	500.21
0	257666	2259.21	400.21
0	257667	2259.21	300.21
0	257761	2260.21	600.21
0	257762	2260.21	500.21
0	257763	2260.21	400.21
0	257764	2260.21	300.21
0	257858	2261.21	600.21
0	257859	2261.21	500.21
0	257860	2261.21	400.21
0	257861	2261.21	300.21
0	257955	2262.21	600.21
0	257956	2262.21	500.21
0	257957	2262.21	400.21
0	257958	2262.21	300.21
0	258052	2263.21	600.21
0	258053	2263.21	500.21
0	258054	2263.21	400.21
0	258055	2263.21	300.21
0	258149	2264.21	600.21
0	258150	2264.21	500.21
0	258151	2264.21	400.21
0	258152	2264.21	300.21
0	258246	2265.21	600.21
0	258247	2265.21	500.21
0	258248	2265.21	400.21
0	258249	2265.21	300.21
0	258343	2266.21	600.21
0	258344	2266.21	500.21
0	258345	2266.21	400.21
0	258346	2266.21	300.21
0	258440	2267.21	600.21
0	258441	2267.21	500.21
0	258442	2267.21	400.21
0	258443	2267.21	300.21
0	258537	2268.21	600.21
0	258538	2268.21	500.21
0	258539	2268.21	400.21
0	258540	2268.21	300.21
0	258634	2269.21	600.21
0	258635	2269.21	500.21
0	258636	2269.21	400.21
0	258637	2269.21	300.21
0	258731	2270.21	600.21
0	258732	2270.21	500.21
0	258733	2270.21	400.21
0	258734	2270.21	300.21
0	258828	2271.21	600.21
0	258829	2271.21	500.21
0	258830	2271.21	400.21
0	258831	2271.21	300.21
0	258925	2272.21	600.21
0	258926	2272.21	500.21
0	258927	2272.21	400.21
0	258928	2272.21	300.21
0	259022	2273.21	600.21
0	259023	2273.21	500.21
0	259024	2273.21	400.21
0	259025	2273.21	300.21
0	259119	2274.21	600.21
0	259120	2274.21	500.21
0	259121	2274.21	400.21
0	259122	2274.21	300.21
0	259216	2275.21	600.21
0	259217	2275.21	500.21
0	259218	2275.21	400.21
0	259219	2275.21	300.21
0	259313	2276.21	600.21
0	259314	2276.21	500.21
0	259315	2276.21	400.21
0	259316	2276.21	300.21
0	259410	2277.21	600.21
0	259411	2277.21	500.21
0	259412	2277.21	400.21
0	259413	2277.21	300.21
0	259507	2278.21	600.21
0	259508	2278.21	500.21
0	259509	2278.21	400.21
0	259510	2278.21	300.21
0	259604	2279.21	600.21
0	259605	2279.21	500.21
0	259606	2279.21	400.21
0	259607	2279.21	300.21
0	259701	2280.21	600.21
0	259702	2280.21	500.21
0	259703	2280.21	400.21
0	259704	2280.21	300.21
0	259798	2281.21	600.21
0	259799	2281.21	500.21
0	259800	2281.21	400.21
0	259801	2281.21	300.21
0	259895	2282.21	600.21
0	259896	2282.21	500.21
0	259897	2282.21	400.21
0	259898	2282.21	300.21
0	259992	2283.21	600.21
0	259993	2283.21	500.21
0	259994	2283.21	400.21
0	259995	2283.21	300.21
0	260089	2284.21	600.21
0	260090	2284.21	500.21
0	260091	2284.21	400.21
0	260092	2284.21	300.21
0	260186	2285.21	600.21
0	260187	2285.21	500.21
0	260188	2285.21	400.21
0	260189	2285.21	300.21
0	260283	2286.21	600.21
0	260284	2286.21	500.21
0	260285	2286.21	400.21
0	260286	2286.21	300.21
0	260380	2287.21	600.21
0	260381	2287.21	500.21
0	260382	2287.21	400.21
0	260383	2287.21	300.21
0	260477	2288.21	600.21
0	260478	2288.21	500.21
0	260479	2288.21	400.21
0	260480	2288.21	300.21
0	260574	2289.21	600.21
0	260575	2289.21	500.21
0	260576	2289.21	400.21
0	260577	2289.21	300.21
0	260671	2290.21	600.21
0	260672	2290.21	500.21
0	260673	2290.21	400.21
0	260674	2290.21	300.21
0	260768	2291.21	600.21
0	260769	2291.21	500.21
0	260770	2291.21	400.21
0	260771	2291.21	300.21
0	260865	2292.21	600.21
0	260866	2292.21	500.21
0	260867	2292.21	400.21
0	260868	2292.21	300.21
0	260962	2293.21	600.21
0	260963	2293.21	500.21
0	260964	2293.21	400.21
0	260965	2293.21	300.21
0	261059	2294.21	600.21
0	261060	2294.21	500.21
0	261061	2294.21	400.21
0	261062	2294.21	300.21
0	261156	2295.21	600.21
0	261157	2295.21	500.21
0	261158	2295.21	400.21
0	261159	2295.21	300.21
0	261253	2296.21	600.21
0	261254	2296.21	500.21
0	261255	2296.21	400.21
0	261256	2296.21	300.21
0	261350	2297.21	600.21
0	261351	2297.21	500.21
0	261352	2297.21	400.21
0	261353	2297.21	300.21
0	261447	2298.21	600.21
0	261448	2298.21	500.21
0	261449	2298.21	400.21
0	261450	2298.21	300.21
0	261544	2299.21	600.21
0	261545	2299.21	500.21
0	261546	2299.21	400.21
0	261547	2299.21	300.21
0	261626	2300.21	600.21
0	261627	2300.21	500.21
0	261628	2300.21	400.21
0	261702	2301.21	600.21
0	261703	2301.21	500.21
0	261704	2301.21	400.21
0	261778	2302.21	600.21
0	261779	2302.21	500.21
0	261780	2302.21	400.21
0	261854	2303.21	600.21
0	261855	2303.21	500.21
0	261856	2303.21	400.21
0	261930	2304.21	600.21
0	261931	2304.21	500.21
0	261932	2304.21	400.21
0	262006	2305.21	600.21
0	262007	2305.21	500.21
0	262008	2305.21	400.21
0	262082	2306.21	600.21
0	262083	2306.21	500.21
0	262084	2306.21	400.21
0	262158	2307.21	600.21
0	262159	2307.21	500.21
0	262160	2307.21	400.21
0	262234	2308.21	600.21
0	262235	2308.21	500.21
0	262236	2308.21	400.21
0	262310	2309.21	600.21
0	262311	2309.21	500.21
0	262312	2309.21	400.21
0	262386	2310.21	600.21
0	262387	2310.21	500.21
0	262388	2310.21	400.21
0	262462	2311.21	600.21
0	262463	2311.21	500.21
0	262464	2311.21	400.21
0	262538	2312.21	600.21
0	262539	2312.21	500.21
0	262540	2312.21	400.21
0	262614	2313.21	600.21
0	262615	2313.21	500.21
0	262616	2313.21	400.21
0	262690	2314.21	600.21
0	262691	2314.21	500.21
0	262692	2314.21	400.21
0	262766	2315.21	600.21
0	262767	2315.21	500.21
0	262768	2315.21	400.21
0	262842	2316.21	600.21
0	262843	2316.21	500.21
0	262844	2316.21	400.21
0	262918	2317.21	600.21
0	262919	2317.21	500.21
0	262920	2317.21	400.21
0	262994	2318.21	600.21
0	262995	2318.21	500.21
0	262996	2318.21	400.21
0	263070	2319.21	600.21
0	263071	2319.21	500.21
0	263072	2319.21	400.21
0	263146	2320.21	600.21
0	263147	2320.21	500.21
0	263148	2320.21	400.21
0	263222	2321.21	600.21
0	263223	2321.21	500.21
0	263224	2321.21	400.21
0	263298	2322.21	600.21
0	263299	2322.21	500.21
0	263300	2322.21	400.21
0	263374	2323.21	600.21
0	263375	2323.21	500.21
0	263376	2323.21	400.21
0	263450	2324.21	600.21
0	263451	2324.21	500.21
0	263452	2324.21	400.21
0	263526	2325.21	600.21
0	263527	2325.21	500.21
0	263528	2325.21	400.21
0	263602	2326.21	600.21
0	263603	2326.21	500.21
0	263604	2326.21	400.21
0	263678	2327.21	600.21
0	263679	2327.21	500.21
0	263680	2327.21	400.21
0	263754	2328.21	600.21
0	263755	2328.21	500.21
0	263756	2328.21	400.21
0	263830	2329.21	600.21
0	263831	2329.21	500.21
0	263832	2329.21	400.21
0	263906	2330.21	600.21
0	263907	2330.21	500.21
0	263908	2330.21	400.21
0	263982	2331.21	600.21
0	263983	2331.21	500.21
0	263984	2331.21	400.21
0	264058	2332.21	600.21
0	264059	2332.21	500.21
0	264060	2332.21	400.21
0	264134	2333.21	600.21
0	264135	2333.21	500.21
0	264136	2333.21	400.21
0	264210	2334.21	600.21
0	264211	2334.21	500.21
0	264212	2334.21	400.21
0	264286	2335.21	600.21
0	264287	2335.21	500.21
0	264288	2335.21	400.21
0	264362	2336.21	600.21
0	264363	2336.21	500.21
0	264364	2336.21	400.21
0	264438	2337.21	600.21
0	264439	2337.21	500.21
0	264440	2337.21	400.21
0	264514	2338.21	600.21
0	264515	2338.21	500.21
0	264516	2338.21	400.21
0	264590	2339.21	600.21
0	264591	2339.21	500.21
0	264592	2339.21	400.21
0	264666	2340.21	600.21
0	264667	2340.21	500.21
0	264668	2340.21	400.21
0	264742	2341.21	600.21
0	264743	2341.21	500.21
0	264744	2341.21	400.21
0	264818	2342.21	600.21
0	264819	2342.21	500.21
0	264820	2342.21	400.21
0	264894	2343.21	600.21
0	264895	2343.21	500.21
0	264896	2343.21	400.21
0	264970	2344.21	600.21
0	264971	2344.21	500.21
0	264972	2344.21	400.21
0	265046	2345.21	600.21
0	265047	2345.21	500.21
0	265048	2345.21	400.21
0	265122	2346.21	600.21
0	265123	2346.21	500.21
0	265124	2346.21	400.21
0	265198	2347.21	600.21
0	265199	2347.21	500.21
0	265200	2347.21	400.21
0	265274	2348.21	600.21
0	265275	2348.21	500.21
0	265276	2348.21	400.21
0	265350	2349.21	600.21
0	265351	2349.21	500.21
0	265352	2349.21	400.21
0	265426	2350.21	600.21
0	265427	2350.21	500.21
0	265428	2350.21	400.21
0	265502	2351.21	600.21
0	265503	2351.21	500.21
0	265504	2351.21	400.21
0	265578	2352.21	600.21
0	265579	2352.21	500.21
0	265580	2352.21	400.21
0	265654	2353.21	600.21
0	265655	2353.21	500.21
0	265656	2353.21	400.21
0	265730	2354.21	600.21
0	265731	2354.21	500.21
0	265732	2354.21	400.21
0	265806	2355.21	600.21
0	265807	2355.21	500.21
0	265808	2355.21	400.21
0	265882	2356.21	600.21
0	265883	2356.21	500.21
0	265884	2356.21	400.21
0	265958	2357.21	600.21
0	265959	2357.21	500.21
0	265960	2357.21	400.21
0	266034	2358.21	600.21
0	266035	2358.21	500.21
0	266036	2358.21	400.21
0	266110	2359.21	600.21
0	266111	2359.21	500.21
0	266112	2359.21	400.21
0	266186	2360.21	600.21
0	266187	2360.21	500.21
0	266188	2360.21	400.21
0	266262	2361.21	600.21
0	266263	2361.21	500.21
0	266264	2361.21	400.21
0	266338	2362.21	600.21
0	266339	2362.21	500.21
0	266340	2362.21	400.21
0	266414	2363.21	600.21
0	266415	2363.21	500.21
0	266416	2363.21	400.21
0	266490	2364.21	600.21
0	266491	2364.21	500.21
0	266492	2364.21	400.21
0	266566	2365.21	600.21
0	266567	2365.21	500.21
0	266568	2365.21	400.21
0	266642	2366.21	600.21
0	266643	2366.21	500.21
0	266644	2366.21	400.21
0	266718	2367.21	600.21
0	266719	2367.21	500.21
0	266720	2367.21	400.21
0	266794	2368.21	600.21
0	266795	2368.21	500.21
0	266796	2368.21	400.21
0	266870	2369.21	600.21
0	266871	2369.21	500.21
0	266872	2369.21	400.21
0	266946	2370.21	600.21
0	266947	2370.21	500.21
0	266948	2370.21	400.21
0	267022	2371.21	600.21
0	267023	2371.21	500.21
0	267024	2371.21	400.21
0	267098	2372.21	600.21
0	267099	2372.21	500.21
0	267100	2372.21	400.21
0	267174	2373.21	600.21
0	267175	2373.21	500.21
0	267176	2373.21	400.21
0	267250	2374.21	600.21
0	267251	2374.21	500.21
0	267252	2374.21	400.21
0	267326	2375.21	600.21
0	267327	2375.21	500.21
0	267328	2375.21	400.21
0	267402	2376.21	600.21
0	267403	2376.21	500.21
0	267404	2376.21	400.21
0	267478	2377.21	600.21
0	267479	2377.21	500.21
0	267480	2377.21	400.21
0	267554	2378.21	600.21
0	267555	2378.21	500.21
0	267556	2378.21	400.21
0	267630	2379.21	600.21
0	267631	2379.21	500.21
0	267632	2379.21	400.21
0	267706	2380.21	600.21
0	267707	2380.21	500.21
0	267708	2380.21	400.21
0	267782	2381.21	600.21
0	267783	2381.21	500.21
0	267784	2381.21	400.21
0	267858	2382.21	600.21
0	267859	2382.21	500.21
0	267860	2382.21	400.21
0	267934	2383.21	600.21
0	267935	2383.21	500.21
0	267936	2383.21	400.21
0	268010	2384.21	600.21
0	268011	2384.21	500.21
0	268012	2384.21	400.21
0	268086	2385.21	600.21
0	268087	2385.21	500.21
0	268088	2385.21	400.21
0	268162	2386.21	600.21
0	268163	2386.21	500.21
0	268164	2386.21	400.21
0	268238	2387.21	600.21
0	268239	2387.21	500.21
0	268240	2387.21	400.21
0	268314	2388.21	600.21
0	268315	2388.21	500.21
0	268316	2388.21	400.21
0	268390	2389.21	600.21
0	268391	2389.21	500.21
0	268392	2389.21	400.21
0	268466	2390.21	600.21
0	268467	2390.21	500.21
0	268468	2390.21	400.21
0	268542	2391.21	600.21
0	268543	2391.21	500.21
0	268544	2391.21	400.21
0	268618	2392.21	600.21
0	268619	2392.21	500.21
0	268620	2392.21	400.21
0	268694	2393.21	600.21
0	268695	2393.21	500.21
0	268696	2393.21	400.21
0	268770	2394.21	600.21
0	268771	2394.21	500.21
0	268772	2394.21	400.21
0	268846	2395.21	600.21
0	268847	2395.21	500.21
0	268848	2395.21	400.21
0	268922	2396.21	600.21
0	268923	2396.21	500.21
0	268924	2396.21	400.21
0	268998	2397.21	600.21
0	268999	2397.21	500.21
0	269000	2397.21	400.21
0	269074	2398.21	600.21
0	269075	2398.21	500.21
0	269076	2398.21	400.21
0	269150	2399.21	600.21
0	269151	2399.21	500.21
0	269152	2399.21	400.21
0	269207	2400.21	600.21
0	269208	2400.21	500.21
0	269256	2401.21	600.21
0	269257	2401.21	500.21
0	269305	2402.21	600.21
0	269306	2402.21	500.21
0	269354	2403.21	600.21
0	269355	2403.21	500.21
0	269403	2404.21	600.21
0	269404	2404.21	500.21
0	269452	2405.21	600.21
0	269453	2405.21	500.21
0	269501	2406.21	600.21
0	269502	2406.21	500.21
0	269550	2407.21	600.21
0	269551	2407.21	500.21
0	269599	2408.21	600.21
0	269600	2408.21	500.21
0	269648	2409.21	600.21
0	269649	2409.21	500.21
0	269697	2410.21	600.21
0	269698	2410.21	500.21
0	269746	2411.21	600.21
0	269747	2411.21	500.21
0	269795	2412.21	600.21
0	269796	2412.21	500.21
0	269844	2413.21	600.21
0	269845	2413.21	500.21
0	269893	2414.21	600.21
0	269894	2414.21	500.21
0	269942	2415.21	600.21
0	269943	2415.21	500.21
0	269991	2416.21	600.21
0	269992	2416.21	500.21
0	270040	2417.21	600.21
0	270041	2417.21	500.21
0	270089	2418.21	600.21
0	270090	2418.21	500.21
0	270138	2419.21	600.21
0	270139	2419.21	500.21
0	270187	2420.21	600.21
0	270188	2420.21	500.21
0	270236	2421.21	600.21
0	270237	2421.21	500.21
0	270285	2422.21	600.21
0	270286	2422.21	500.21
0	270334	2423.21	600.21
0	270335	2423.21	500.21
0	270383	2424.21	600.21
0	270384	2424.21	500.21
0	270432	2425.21	600.21
0	270433	2425.21	500.21
0	270481	2426.21	600.21
0	270482	2426.21	500.21
0	270530	2427.21	600.21
0	270531	2427.21	500.21
0	270579	2428.21	600.21
0	270580	2428.21	500.21
0	270628	2429.21	600.21
0	270629	2429.21	500.21
0	270677	2430.21	600.21
0	270678	2430.21	500.21
0	270726	2431.21	600.21
0	270727	2431.21	500.21
0	270775	2432.21	600.21
0	270776	2432.21	500.21
0	270824	2433.21	600.21
0	270825	2433.21	500.21
0	270873	2434.21	600.21
0	270874	2434.21	500.21
0	270922	2435.21	600.21
0	270923	2435.21	500.21
0	270971	2436.21	600.21
0	270972	2436.21	500.21
0	271020	2437.21	600.21
0	271021	2437.21	500.21
0	271069	2438.21	600.21
0	271070	2438.21	500.21
0	271118	2439.21	600.21
0	271119	2439.21	500.21
0	271167	2440.21	600.21
0	271168	2440.21	500.21
0	271216	2441.21	600.21
0	271217	2441.21	500.21
0	271265	2442.21	600.21
0	271266	2442.21	500.21
0	271314	2443.21	600.21
0	271315	2443.21	500.21
0	271363	2444.21	600.21
0	271364	2444.21	500.21
0	271412	2445.21	600.21
0	271413	2445.21	500.21
0	271461	2446.21	600.21
0	271462	2446.21	500.21
0	271510	2447.21	600.21
0	271511	2447.21	500.21
0	271559	2448.21	600.21
0	271560	2448.21	500.21
0	271608	2449.21	600.21
0	271609	2449.21	500.21
0	271657	2450.21	600.21
0	271658	2450.21	500.21
0	271706	2451.21	600.21
0	271707	2451.21	500.21
0	271755	2452.21	600.21
0	271756	2452.21	500.21
0	271804	2453.21	600.21
0	271805	2453.21	500.21
0	271853	2454.21	600.21
0	271854	2454.21	500.21
0	271902	2455.21	600.21
0	271903	2455.21	500.21
0	271951	2456.21	600.21
0	271952	2456.21	500.21
0	272000	2457.21	600.21
0	272001	2457.21	500.21
0	272049	2458.21	600.21
0	272050	2458.21	500.21
0	272098	2459.21	600.21
0	272099	2459.21	500.21
0	272147	2460.21	600.21
0	272148	2460.21	500.21
0	272196	2461.21	600.21
0	272197	2461.21	500.21
0	272245	2462.21	600.21
0	272246	2462.21	500.21
0	272294	2463.21	600.21
0	272295	2463.21	500.21
0	272343	2464.21	600.21
0	272344	2464.21	500.21
0	272392	2465.21	600.21
0	272393	2465.21	500.21
0	272441	2466.21	600.21
0	272442	2466.21	500.21
0	272490	2467.21	600.21
0	272491	2467.21	500.21
0	272539	2468.21	600.21
0	272540	2468.21	500.21
0	272588	2469.21	600.21
0	272589	2469.21	500.21
0	272637	2470.21	600.21
0	272638	2470.21	500.21
0	272686	2471.21	600.21
0	272687	2471.21	500.21
0	272735	2472.21	600.21
0	272736	2472.21	500.21
0	272784	2473.21	600.21
0	272785	2473.21	500.21
0	272833	2474.21	600.21
0	272834	2474.21	500.21
0	272882	2475.21	600.21
0	272883	2475.21	500.21
0	272931	2476.21	600.21
0	272932	2476.21	500.21
0	272980	2477.21	600.21
0	272981	2477.21	500.21
0	273029	2478.21	600.21
0	273030	2478.21	500.21
0	273078	2479.21	600.21
0	273079	2479.21	500.21
0	273127	2480.21	600.21
0	273128	2480.21	500.21
0	273176	2481.21	600.21
0	273177	2481.21	500.21
0	273225	2482.21	600.21
0	273226	2482.21	500.21
0	273274	2483.21	600.21
0	273275	2483.21	500.21
0	273323	2484.21	600.21
0	273324	2484.21	500.21
0	273372	2485.21	600.21
0	273373	2485.21	500.21
0	273421	2486.21	600.21
0	273422	2486.21	500.21
0	273470	2487.21	600.21
0	273471	2487.21	500.21
0	273519	2488.21	600.21
0	273520	2488.21	500.21
0	273568	2489.21	600.21
0	273569	2489.21	500.21
0	273617	2490.21	600.21
0	273618	2490.21	500.21
0	273666	2491.21	600.21
0	273667	2491.21	500.21
0	273715	2492.21	600.21
0	273716	2492.21	500.21
0	273764	2493.21	600.21
0	273765	2493.21	500.21
0	273813	2494.21	600.21
0	273814	2494.21	500.21
0	273862	2495.21	600.21
0	273863	2495.21	500.21
0	273911	2496.21	600.21
0	273912	2496.21	500.21
0	273960	2497.21	600.21
0	273961	2497.21	500.21
0	274009	2498.21	600.21
0	274010	2498.21	500.21
0	274058	2499.21	600.21
0	274059	2499.21	500.21
0	274095	2500.21	600.21
0	274124	2501.21	600.21
0	274153	2502.21	600.21
0	274182	2503.21	600.21
0	274211	2504.21	600.21
0	274240	2505.21	600.21
0	274269	2506.21	600.21
0	274298	2507.21	600.21
0	274327	2508.21	600.21
0	274356	2509.21	600.21
0	274385	2510.21	600.21
0	274414	2511.21	600.21
0	274443	2512.21	600.21
0	274472	2513.21	600.21
0	274501	2514.21	600.21
0	274530	2515.21	600.21
0	274559	2516.21	600.21
0	274588	2517.21	600.21
0	274617	2518.21	600.21
0	274646	2519.21	600.21
0	274675	2520.21	600.21
0	274704	2521.21	600.21
0	274733	2522.21	600.21
0	274762	2523.21	600.21
0	274791	2524.21	600.21
0	274820	2525.21	600.21
0	274849	2526.21	600.21
0	274878	2527.21	600.21
0	274907	2528.21	600.21
0	274936	2529.21	600.21
0	274965	2530.21	600.21
0	274994	2531.21	600.21
0	275023	2532.21	600.21
0	275052	2533.21	600.21
0	275081	2534.21	600.21
0	275110	2535.21	600.21
0	275139	2536.21	600.21
0	275168	2537.21	600.21
0	275197	2538.21	600.21
0	275226	2539.21	600.21
0	275255	2540.21	600.21
0	275284	2541.21	600.21
0	275313	2542.21	600.21
0	275342	2543.21	600.21
0	275371	2544.21	600.21
0	275400	2545.21	600.21
0	275429	2546.21	600.21
0	275458	2547.21	600.21
0	275487	2548.21	600.21
0	275516	2549.21	600.21
0	275545	2550.21	600.21
0	275574	2551.21	600.21
0	275603	2552.21	600.21
0	275632	2553.21	600.21
0	275661	2554.21	600.21
0	275690	2555.21	600.21
0	275719	2556.21	600.21
0	275748	2557.21	600.21
0	275777	2558.21	600.21
0	275806	2559.21	600.21
0	275835	2560.21	600.21
0	275864	2561.21	600.21
0	275893	2562.21	600.21
0	275922	2563.21	600.21
0	275951	2564.21	600.21
0	275980	2565.21	600.21
0	276009	2566.21	600.21
0	276038	2567.21	600.21
0	276067	2568.21	600.21
0	276096	2569.21	600.21
0	276125	2570.21	600.21
0	276154	2571.21	600.21
0	276183	2572.21	600.21
0	276212	2573.21	600.21
0	276241	2574.21	600.21
0	276270	2575.21	600.21
0	276299	2576.21	600.21
0	276328	2577.21	600.21
0	276357	2578.21	600.21
0	276386	2579.21	600.21
0	276415	2580.21	600.21
0	276444	2581.21	600.21
0	276473	2582.21	600.21
0	276502	2583.21	600.21
0	276531	2584.21	600.21
0	276560	2585.21	600.21
0	276589	2586.21	600.21
0	276618	2587.21	600.21
0	276647	2588.21	600.21
0	276676	2589.21	600.21
0	276705	2590.21	600.21
0	276734	2591.21	600.21
0	276763	2592.21	600.21
0	276792	2593.21	600.21
0	276821	2594.21	600.21
0	276850	2595.21	600.21
0	276879	2596.21	600.21
0	276908	2597.21	600.21
0	276937	2598.21	600.21
0	276966	2599.21	600.21

