version 2
run General-0-20250116-12:07:48-161981
attr configname General
attr datetime 20250116-12:07:48
attr experiment General
attr inifile shaw.ini
attr iterationvars ""
attr iterationvarsf ""
attr measurement ""
attr network src.dtnsim
attr processid 161981
attr repetition 0
attr replication #0
attr resultdir results
attr runnumber 0
attr seedset 0
param dtnsim.central.contactsFile "\"contactPlan/Contacts.txt\""
param dtnsim.central.contactsFile_A "\"contactPlan/Contacts.txt\""
param dtnsim.central.contactsFile_B "\"contactPlan/Contacts.txt\""
param dtnsim.central.contactIdsToDelete_from_celestialA "\"2 26 31 47 53 82 85 88 91 98 99 104 154 155 160 163 179 191 196 198 199 215 217 235 237 282 298 299 307 308 313 318 326 358 362 366 369 370 383 386 393 404 406 409 414 417 423 424 426 429 432 433 439 446 460\""
param dtnsim.central.contactIdsToDelete_from_celestialB "\"5 22 36 48 62 71 79 81 87 89 105 116 130 133 142 147 165 174 183 202 211 221 222 226 229 234 248 266 293 294 296 317 325 329 340 354 376 379 387 394 399 427 435 454 459\""
param dtnsim.central.celestialA_nodes "\"1 2 3\""
param dtnsim.central.celestialB_nodes "\"4 5 6\""
param dtnsim.central.locallyfaultsAware false
param dtnsim.central.mode_two_celestial true
param dtnsim.nodesNumber 6
param dtnsim.node[1].icon "\"receiverdish\""
param dtnsim.node[2..5].icon "\"satellite\""
param dtnsim.node[6].icon "\"receiverdish\""
param dtnsim.node[*].dtn.routing "\"cgrModel350\""
param dtnsim.node[*].dtn.routingType "\"routeListType:allPaths-firstEnding,volumeAware:allContacts,extensionBlock:on,contactPlan:global\""
param dtnsim.node[1].app.enable true
param dtnsim.node[1].app.bundlesNumber "\"8640\""
param dtnsim.node[1].app.start "\"0\""
param dtnsim.node[1].app.destinationEid "\"6\""
param dtnsim.node[1].app.size "\"1500\""
param dtnsim.node[1].app.interval 10

vector 0 dtnsim.node[6].app appBundleReceivedDelayvec:vector ETV
attr interpolationmode none
attr source appBundleReceivedDelay
attr title "appBundleReceivedDelayvec, vector"
0	15645	13597	9617
0	15651	13597	9607
0	15657	13597	9597
0	15663	13597	9587
0	15669	13597	9577
0	15675	13597	9567
0	15681	13597	9557
0	15687	13597	9547
0	15693	13597	9537
0	15699	13597	9527
0	15705	13597	9517
0	15711	13597	9507
0	15717	13597	9497
0	15723	13597	9487
0	15729	13597	9477
0	15735	13597	9467
0	15741	13597	9457
0	15747	13597	9447
0	15753	13597	9437
0	15759	13597	9427
0	15765	13597	9417
0	15771	13597	9407
0	15777	13597	9397
0	15783	13597	9387
0	15789	13597	9377
0	15795	13597	9367
0	15801	13597	9357
0	15807	13597	9347
0	15813	13597	9337
0	15819	13597	9327
0	15825	13597	9317
0	15831	13597	9307
0	15837	13597	9297
0	15843	13597	9287
0	15849	13597	9277
0	15855	13597	9267
0	15861	13597	9257
0	15867	13597	9247
0	15873	13597	9237
0	15879	13597	9227
0	15885	13597	9217
0	15891	13597	9207
0	15897	13597	9197
0	15903	13597	9187
0	15909	13597	9177
0	15915	13597	9167
0	15921	13597	9157
0	15927	13597	9147
0	15933	13597	9137
0	15939	13597	9127
0	15945	13597	9117
0	15951	13597	9107
0	15957	13597	9097
0	15963	13597	9087
0	15969	13597	9077
0	15975	13597	9067
0	15981	13597	9057
0	15987	13597	9047
0	15993	13597	9037
0	15999	13597	9027
0	16005	13597	9017
0	16011	13597	9007
0	16017	13597	8997
0	16023	13597	8987
0	16029	13597	8977
0	16035	13597	8967
0	16041	13597	8957
0	16047	13597	8947
0	16053	13597	8937
0	16059	13597	8927
0	16065	13597	8917
0	16071	13597	8907
0	16077	13597	8897
0	16083	13597	8887
0	16089	13597	8877
0	16095	13597	8867
0	16101	13597	8857
0	16107	13597	8847
0	16113	13597	8837
0	16119	13597	8827
0	16125	13597	8817
0	16131	13597	8807
0	16137	13597	8797
0	16143	13597	8787
0	16149	13597	8777
0	16155	13597	8767
0	16161	13597	8757
0	16167	13597	8747
0	16173	13597	8737
0	16179	13597	8727
0	16185	13597	8717
0	16191	13597	8707
0	16197	13597	8697
0	16203	13597	8687
0	16209	13597	8677
0	16215	13597	8667
0	16221	13597	8657
0	16227	13597	8647
0	16233	13597	8637
0	16239	13597	8627
0	16245	13597	8617
0	16251	13597	8607
0	16257	13597	8597
0	16263	13597	8587
0	16269	13597	8577
0	16275	13597	8567
0	16281	13597	8557
0	16287	13597	8547
0	16293	13597	8537
0	16299	13597	8527
0	16305	13597	8517
0	16311	13597	8507
0	16317	13597	8497
0	16323	13597	8487
0	16329	13597	8477
0	16335	13597	8467
0	16341	13597	8457
0	16347	13597	8447
0	16353	13597	8437
0	16359	13597	8427
0	16365	13597	8417
0	16371	13597	8407
0	16377	13597	8397
0	16383	13597	8387
0	16389	13597	8377
0	16395	13597	8367
0	16401	13597	8357
0	16407	13597	8347
0	16413	13597	8337
0	16419	13597	8327
0	16425	13597	8317
0	16431	13597	8307
0	16437	13597	4347
0	16443	13597	4337
0	16449	13597	4327
0	16455	13597	4317
0	16461	13597	4307
0	16467	13597	4297
0	16473	13597	4287
0	16479	13597	4277
0	16485	13597	4267
0	16491	13597	4257
0	16497	13597	4247
0	16503	13597	4237
0	16509	13597	4227
0	16515	13597	4217
0	16521	13597	4207
0	16527	13597	4197
0	16533	13597	4187
0	16539	13597	4177
0	16545	13597	4167
0	16551	13597	4157
0	16557	13597	4147
0	16563	13597	4137
0	16569	13597	4127
0	16575	13597	4117
0	16581	13597	4107
0	16587	13597	4097
0	16593	13597	4087
0	16599	13597	4077
0	16605	13597	4067
0	16611	13597	4057
0	16617	13597	4047
0	16623	13597	4037
0	16629	13597	4027
0	16635	13597	4017
0	16641	13597	4007
0	16647	13597	3997
0	16653	13597	3987
0	16659	13597	3977
0	16665	13597	3967
0	16671	13597	3957
0	16677	13597	3947
0	16683	13597	3937
0	16689	13597	3927
0	16695	13597	3917
0	16701	13597	3907
0	16707	13597	3897
0	16713	13597	3887
0	16719	13597	3877
0	16725	13597	3867
0	16731	13597	3857
0	16737	13597	3847
0	16743	13597	3837
0	16749	13597	3827
0	16755	13597	3817
0	16761	13597	3807
0	16767	13597	3797
0	16773	13597	3787
0	16779	13597	3777
0	16785	13597	3767
0	16791	13597	3757
0	16797	13597	3747
0	16803	13597	3737
0	16809	13597	3727
0	16815	13597	3717
0	16821	13597	3707
0	16827	13597	3697
0	16833	13597	3687
0	16839	13597	3677
0	16845	13597	3667
0	16851	13597	3657
0	16857	13597	3647
0	16863	13597	3637
0	16869	13597	3627
0	16875	13597	3617
0	16881	13597	3607
0	16887	13597	3597
0	16893	13597	3587
0	16899	13597	3577
0	16905	13597	3567
0	16911	13597	3557
0	16917	13597	3547
0	16923	13597	3537
0	16929	13597	3527
0	16935	13597	3517
0	16941	13597	3507
0	16947	13597	3497
0	16953	13597	3487
0	16959	13597	3477
0	16965	13597	3467
0	16971	13597	3457
0	16977	13597	3447
0	16983	13597	3437
0	16989	13597	3427
0	16995	13597	3417
0	17001	13597	3407
0	17007	13597	3397
0	17013	13597	3387
0	17019	13597	3377
0	17025	13597	3367
0	17031	13597	3357
0	17037	13597	3347
0	17043	13597	3337
0	17049	13597	3327
0	17055	13597	3317
0	17061	13597	3307
0	17067	13597	3297
0	17073	13597	3287
0	17079	13597	3277
0	17085	13597	3267
0	17091	13597	3257
0	17097	13597	3247
0	17103	13597	3237
0	17109	13597	3227
0	17115	13597	3217
0	17121	13597	3207
0	17127	13597	3197
0	17133	13597	3187
0	17139	13597	3177
0	17145	13597	3167
0	17151	13597	3157
0	17157	13597	3147
0	17163	13597	3137
0	17169	13597	3127
0	17175	13597	3117
0	17181	13597	3107
0	17187	13597	3097
0	17193	13597	3087
0	17199	13597	3077
0	17205	13597	3067
0	17211	13597	3057
0	17217	13597	3047
0	17223	13597	3037
0	17229	13597	3027
0	17235	13597	3017
0	17241	13597	3007
0	17247	13597	2997
0	17253	13597	2987
0	17259	13597	2977
0	17265	13597	2967
0	17271	13597	2957
0	17277	13597	2947
0	17283	13597	2937
0	17289	13597	2927
0	17295	13597	2917
0	17301	13597	2907
0	17307	13597	2897
0	17313	13597	2887
0	17319	13597	2877
0	17325	13597	2867
0	17331	13597	2857
0	17337	13597	2847
0	17343	13597	2837
0	17349	13597	2827
0	17355	13597	2817
0	17361	13597	2807
0	17367	13597	2797
0	17373	13597	2787
0	17379	13597	2777
0	17385	13597	2767
0	17391	13597	2757
0	17397	13597	2747
0	17403	13597	2737
0	17409	13597	2727
0	17415	13597	2717
0	17421	13597	2707
0	17427	13597	2697
0	17433	13597	2687
0	17439	13597	2677
0	17445	13597	2667
0	17451	13597	2657
0	17457	13597	2647
0	17463	13597	2637
0	17469	13597	2627
0	17475	13597	2617
0	17481	13597	2607
0	17487	13597	2597
0	17493	13597	2587
0	17499	13597	2577
0	17505	13597	2567
0	17511	13597	2557
0	17517	13597	2547
0	17523	13597	2537
0	17529	13597	2527
0	17535	13597	2517
0	17541	13597	2507
0	17547	13597	2497
0	17553	13597	2487
0	17559	13597	2477
0	17565	13597	2467
0	17571	13597	2457
0	17577	13597	2447
0	17583	13597	2437
0	17589	13597	2427
0	17595	13597	2417
0	17601	13597	2407
0	17607	13597	2397
0	17613	13597	2387
0	17619	13597	2377
0	17625	13597	2367
0	17631	13597	2357
0	17637	13597	2347
0	17643	13597	2337
0	17649	13597	2327
0	17655	13597	2317
0	17661	13597	2307
0	17667	13597	2297
0	17673	13597	2287
0	17679	13597	2277
0	17685	13597	2267
0	17691	13597	2257
0	17697	13597	2247
0	17703	13597	2237
0	17709	13597	2227
0	17715	13597	2217
0	17721	13597	2207
0	17727	13597	2197
0	17733	13597	2187
0	17739	13597	2177
0	17745	13597	2167
0	17751	13597	2157
0	17757	13597	2147
0	17763	13597	2137
0	17769	13597	2127
0	17775	13597	2117
0	17781	13597	2107
0	17787	13597	2097
0	17793	13597	2087
0	17799	13597	2077
0	17805	13597	2067
0	17811	13597	2057
0	17817	13597	2047
0	17823	13597	2037
0	17829	13597	2027
0	17835	13597	2017
0	17841	13597	2007
0	17847	13597	1997
0	17853	13597	1987
0	17859	13597	1977
0	17865	13597	1967
0	17871	13597	1957
0	17877	13597	1947
0	17883	13597	1937
0	17889	13597	1927
0	17895	13597	1917
0	17901	13597	1907
0	17907	13597	1897
0	17913	13597	1887
0	17919	13597	1877
0	17925	13597	1867
0	17931	13597	1857
0	17937	13597	1847
0	17943	13597	1837
0	17949	13597	1827
0	17955	13597	1817
0	17961	13597	1807
0	17967	13597	1797
0	17973	13597	1787
0	17979	13597	1777
0	17985	13597	1767
0	17991	13597	1757
0	17997	13597	1747
0	18003	13597	1737
0	18009	13597	1727
0	18015	13597	1717
0	18021	13597	1707
0	18027	13597	1697
0	18033	13597	1687
0	18039	13597	1677
0	18045	13597	1667
0	18051	13597	1657
0	18057	13597	1647
0	18063	13597	1637
0	18069	13597	1627
0	18075	13597	1617
0	18081	13597	1607
0	18087	13597	1597
0	18093	13597	1587
0	18099	13597	1577
0	18105	13597	1567
0	18111	13597	1557
0	18117	13597	1547
0	18123	13597	1537
0	18129	13597	1527
0	18135	13597	1517
0	18141	13597	1507
0	18147	13597	1497
0	18153	13597	1487
0	18159	13597	1477
0	18165	13597	1467
0	18171	13597	1457
0	18177	13597	1447
0	18183	13597	1437
0	18189	13597	1427
0	18195	13597	1417
0	18201	13597	1407
0	18207	13597	1397
0	18213	13597	1387
0	18219	13597	1377
0	18225	13597	1367
0	18231	13597	1357
0	18237	13597	1347
0	18243	13597	1337
0	18249	13597	1327
0	18255	13597	1317
0	18261	13597	1307
0	18267	13597	1297
0	18273	13597	1287
0	18279	13597	1277
0	18285	13597	1267
0	18291	13597	1257
0	18297	13597	1247
0	18303	13597	1237
0	18309	13597	1227
0	18315	13597	1217
0	18321	13597	1207
0	18327	13597	1197
0	18333	13597	1187
0	18339	13597	1177
0	18345	13597	1167
0	18351	13597	1157
0	18357	13597	1147
0	18363	13597	1137
0	18369	13597	1127
0	18375	13597	1117
0	18381	13597	1107
0	18387	13597	1097
0	18393	13597	1087
0	18399	13597	1077
0	18405	13597	1067
0	18411	13597	1057
0	18417	13597	1047
0	18423	13597	1037
0	18429	13597	1027
0	18435	13597	1017
0	18441	13597	1007
0	18447	13597	997
0	18453	13597	987
0	18459	13597	977
0	18465	13597	967
0	18471	13597	957
0	18477	13597	947
0	18483	13597	937
0	18489	13597	927
0	18495	13597	917
0	18501	13597	907
0	18507	13597	897
0	18513	13597	887
0	18519	13597	877
0	18525	13597	867
0	18531	13597	857
0	18537	13597	847
0	18553	13598	838
0	18582	13608	838
0	18611	13618	838
0	18640	13628	838
0	18671	13638	838
0	18701	13648	838
0	18731	13658	838
0	18761	13668	838
0	18791	13678	838
0	18821	13688	838
0	18851	13698	838
0	18881	13708	838
0	18911	13718	838
0	18941	13728	838
0	18973	13738	838
0	19003	13748	838
0	19033	13758	838
0	19063	13768	838
0	19093	13778	838
0	19123	13788	838
0	19153	13798	838
0	19183	13808	838
0	19213	13818	838
0	19243	13828	838
0	20898	14678	1678
0	20910	14678	1668
0	20923	14678	1658
0	20934	14678	1648
0	20947	14678	1638
0	20958	14678	1628
0	20971	14678	1618
0	20982	14678	1608
0	20995	14678	1598
0	21006	14678	1588
0	21019	14678	1578
0	21030	14678	1568
0	21043	14678	1558
0	21054	14678	1548
0	21067	14678	1538
0	21078	14678	1528
0	21091	14678	1518
0	21102	14678	1508
0	21115	14678	1498
0	21126	14678	1488
0	21139	14678	1478
0	21150	14678	1468
0	21163	14678	1458
0	21174	14678	1448
0	21187	14678	1438
0	21198	14678	1428
0	21211	14678	1418
0	21222	14678	1408
0	21235	14678	1398
0	21246	14678	1388
0	21259	14678	1378
0	21270	14678	1368
0	21283	14678	1358
0	21294	14678	1348
0	21307	14678	1338
0	21318	14678	1328
0	21331	14678	1318
0	21342	14678	1308
0	21355	14678	1298
0	21366	14678	1288
0	21379	14678	1278
0	21390	14678	1268
0	21403	14678	1258
0	21414	14678	1248
0	21427	14678	1238
0	21438	14678	1228
0	21451	14678	1218
0	21462	14678	1208
0	21475	14678	1198
0	21486	14678	1188
0	21499	14678	1178
0	21510	14678	1168
0	21523	14678	1158
0	21534	14678	1148
0	21547	14678	1138
0	21558	14678	1128
0	21571	14678	1118
0	21582	14678	1108
0	21595	14678	1098
0	21606	14678	1088
0	21619	14678	1078
0	21630	14678	1068
0	21643	14678	1058
0	21654	14678	1048
0	21667	14678	1038
0	21678	14678	1028
0	21691	14678	1018
0	21702	14678	1008
0	21715	14678	998
0	21726	14678	988
0	21739	14678	978
0	21750	14678	968
0	21763	14678	958
0	21774	14678	948
0	21787	14678	938
0	21798	14678	928
0	21811	14678	918
0	21822	14678	908
0	21835	14678	898
0	21846	14678	888
0	21859	14678	878
0	21870	14678	868
0	21883	14678	858
0	21894	14678	848
0	21903	14678	838
0	21935	14688	838
0	21968	14698	838
0	22001	14708	838
0	22034	14718	838
0	22067	14728	838
0	22100	14738	838
0	22133	14748	838
0	22166	14758	838
0	22199	14768	838
0	22232	14778	838
0	22265	14788	838
0	22298	14798	838
0	22331	14808	838
0	22364	14818	838
0	22397	14828	838
0	22430	14838	838
0	22463	14848	838
0	22496	14858	838
0	22529	14868	838
0	22562	14878	838
0	22595	14888	838
0	22628	14898	838
0	22661	14908	838
0	22694	14918	838
0	22727	14928	838
0	22761	14938	838
0	24559	15778	1668
0	24573	15778	1658
0	24587	15778	1648
0	24598	15778	1638
0	24612	15778	1628
0	24623	15778	1618
0	24637	15778	1608
0	24648	15778	1598
0	24662	15778	1588
0	24673	15778	1578
0	24687	15778	1568
0	24698	15778	1558
0	24712	15778	1548
0	24723	15778	1538
0	24737	15778	1528
0	24748	15778	1518
0	24762	15778	1508
0	24773	15778	1498
0	24787	15778	1488
0	24798	15778	1478
0	24812	15778	1468
0	24823	15778	1458
0	24837	15778	1448
0	24848	15778	1438
0	24862	15778	1428
0	24873	15778	1418
0	24887	15778	1408
0	24898	15778	1398
0	24912	15778	1388
0	24923	15778	1378
0	24937	15778	1368
0	24948	15778	1358
0	24962	15778	1348
0	24973	15778	1338
0	24987	15778	1328
0	24998	15778	1318
0	25012	15778	1308
0	25023	15778	1298
0	25037	15778	1288
0	25048	15778	1278
0	25062	15778	1268
0	25073	15778	1258
0	25087	15778	1248
0	25098	15778	1238
0	25112	15778	1228
0	25123	15778	1218
0	25137	15778	1208
0	25148	15778	1198
0	25162	15778	1188
0	25173	15778	1178
0	25187	15778	1168
0	25198	15778	1158
0	25212	15778	1148
0	25223	15778	1138
0	25237	15778	1128
0	25248	15778	1118
0	25262	15778	1108
0	25273	15778	1098
0	25287	15778	1088
0	25298	15778	1078
0	25312	15778	1068
0	25323	15778	1058
0	25337	15778	1048
0	25348	15778	1038
0	25362	15778	1028
0	25373	15778	1018
0	25387	15778	1008
0	25398	15778	998
0	25412	15778	988
0	25423	15778	978
0	25437	15778	968
0	25448	15778	958
0	25462	15778	948
0	25473	15778	938
0	25487	15778	928
0	25498	15778	918
0	25512	15778	908
0	25523	15778	898
0	25537	15778	888
0	25548	15778	878
0	25562	15778	868
0	25573	15778	858
0	25587	15778	848
0	25594	15778	838
0	25626	15788	838
0	25661	15798	838
0	25696	15808	838
0	25731	15818	838
0	25765	15828	838
0	25800	15838	838
0	25834	15848	838
0	25868	15858	838
0	25902	15868	838
0	25936	15878	838
0	25970	15888	838
0	26004	15898	838
0	26038	15908	838
0	26072	15918	838
0	26106	15928	838
0	26140	15938	838
0	26174	15948	838
0	26208	15958	838
0	26242	15968	838
0	26276	15978	838
0	26310	15988	838
0	26344	15998	838
0	26378	16008	838
0	26412	16018	838
0	26446	16028	838
0	26480	16038	838
0	26516	16048	838
0	26550	16058	838
0	26584	16068	838
0	26618	16078	838
0	26653	16088	838
0	26686	16098	838
0	26721	16108	838
0	26755	16118	838
0	26789	16128	838
0	26823	16138	838
0	26857	16148	838
0	26891	16158	838
0	26925	16168	838
0	26959	16178	838
0	26993	16188	838
0	27027	16198	838
0	27061	16208	838
0	27095	16218	838
0	27129	16228	838
0	27163	16238	838
0	27197	16248	838
0	27231	16258	838
0	27265	16268	838
0	27299	16278	838
0	27333	16288	838
0	27367	16298	838
0	27401	16308	838
0	27435	16318	838
0	27469	16328	838
0	27503	16338	838
0	27537	16348	838
0	27571	16358	838
0	27605	16368	838
0	27639	16378	838
0	27673	16388	838
0	27706	16398	838
0	27739	16408	838
0	27772	16418	838
0	27805	16428	838
0	27838	16438	838
0	27871	16448	838
0	27904	16458	838
0	27937	16468	838
0	27970	16478	838
0	28003	16488	838
0	28036	16498	838
0	28069	16508	838
0	28102	16518	838
0	28135	16528	838
0	28168	16538	838
0	28201	16548	838
0	28234	16558	838
0	29806	17409	1679
0	29815	17409	1669
0	29821	17409	1659
0	29827	17409	1649
0	29833	17409	1639
0	29839	17409	1629
0	29845	17409	1619
0	29851	17409	1609
0	29857	17409	1599
0	29863	17409	1589
0	29869	17409	1579
0	29875	17409	1569
0	29881	17409	1559
0	29887	17409	1549
0	29893	17409	1539
0	29899	17409	1529
0	29905	17409	1519
0	29911	17409	1509
0	29917	17409	1499
0	29923	17409	1489
0	29929	17409	1479
0	29935	17409	1469
0	29941	17409	1459
0	29947	17409	1449
0	29953	17409	1439
0	29959	17409	1429
0	29965	17409	1419
0	29971	17409	1409
0	29977	17409	1399
0	29983	17409	1389
0	29989	17409	1379
0	29995	17409	1369
0	30001	17409	1359
0	30007	17409	1349
0	30013	17409	1339
0	30019	17409	1329
0	30025	17409	1319
0	30031	17409	1309
0	30037	17409	1299
0	30043	17409	1289
0	30049	17409	1279
0	30055	17409	1269
0	30061	17409	1259
0	30067	17409	1249
0	30073	17409	1239
0	30079	17409	1229
0	30085	17409	1219
0	30091	17409	1209
0	30097	17409	1199
0	30103	17409	1189
0	30109	17409	1179
0	30115	17409	1169
0	30121	17409	1159
0	30127	17409	1149
0	30133	17409	1139
0	30139	17409	1129
0	30145	17409	1119
0	30151	17409	1109
0	30157	17409	1099
0	30163	17409	1089
0	30169	17409	1079
0	30175	17409	1069
0	30181	17409	1059
0	30187	17409	1049
0	30193	17409	1039
0	30199	17409	1029
0	30205	17409	1019
0	30211	17409	1009
0	30217	17409	999
0	30223	17409	989
0	30229	17409	979
0	30235	17409	969
0	30241	17409	959
0	30247	17409	949
0	30253	17409	939
0	30259	17409	929
0	30265	17409	919
0	30271	17409	909
0	30277	17409	899
0	30283	17409	889
0	30289	17409	879
0	30295	17409	869
0	30301	17409	859
0	30307	17409	849
0	30313	17409	839
0	30334	17419	839
0	30358	17429	839
0	30383	17439	839
0	30398	17449	839
0	30413	17459	839
0	30428	17469	839
0	30443	17479	839
0	30458	17489	839
0	30473	17499	839
0	30488	17509	839
0	30503	17519	839
0	30518	17529	839
0	30534	17539	839
0	30549	17549	839
0	30564	17559	839
0	30579	17569	839
0	30594	17579	839
0	30609	17589	839
0	30730	17599	839
0	30754	17609	839
0	30778	17619	839
0	30802	17629	839
0	30826	17639	839
0	30850	17649	839
0	30874	17659	839
0	30898	17669	839
0	30922	17679	839
0	30946	17689	839
0	30970	17699	839
0	30994	17709	839
0	31018	17719	839
0	31042	17729	839
0	31066	17739	839
0	31090	17749	839
0	31114	17759	839
0	31138	17769	839
0	31162	17779	839
0	31186	17789	839
0	31210	17799	839
0	31234	17809	839
0	31258	17819	839
0	31282	17829	839
0	31306	17839	839
0	31330	17849	839
0	31354	17859	839
0	31378	17869	839
0	31402	17879	839
0	31426	17889	839
0	31450	17899	839
0	31474	17909	839
0	31499	17919	839
0	31523	17929	839
0	31547	17939	839
0	33257	18789	1679
0	33266	18789	1669
0	33272	18789	1659
0	33278	18789	1649
0	33284	18789	1639
0	33290	18789	1629
0	33296	18789	1619
0	33302	18789	1609
0	33308	18789	1599
0	33314	18789	1589
0	33320	18789	1579
0	33326	18789	1569
0	33332	18789	1559
0	33338	18789	1549
0	33344	18789	1539
0	33350	18789	1529
0	33356	18789	1519
0	33362	18789	1509
0	33368	18789	1499
0	33374	18789	1489
0	33380	18789	1479
0	33386	18789	1469
0	33392	18789	1459
0	33398	18789	1449
0	33404	18789	1439
0	33410	18789	1429
0	33416	18789	1419
0	33422	18789	1409
0	33428	18789	1399
0	33434	18789	1389
0	33440	18789	1379
0	33446	18789	1369
0	33452	18789	1359
0	33458	18789	1349
0	33464	18789	1339
0	33470	18789	1329
0	33476	18789	1319
0	33482	18789	1309
0	33488	18789	1299
0	33494	18789	1289
0	33500	18789	1279
0	33506	18789	1269
0	33512	18789	1259
0	33518	18789	1249
0	33524	18789	1239
0	33530	18789	1229
0	33536	18789	1219
0	33542	18789	1209
0	33548	18789	1199
0	33554	18789	1189
0	33560	18789	1179
0	33566	18789	1169
0	33572	18789	1159
0	33578	18789	1149
0	33584	18789	1139
0	33590	18789	1129
0	33596	18789	1119
0	33602	18789	1109
0	33608	18789	1099
0	33614	18789	1089
0	33620	18789	1079
0	33626	18789	1069
0	33632	18789	1059
0	33638	18789	1049
0	33644	18789	1039
0	33650	18789	1029
0	33656	18789	1019
0	33662	18789	1009
0	33668	18789	999
0	33674	18789	989
0	33680	18789	979
0	33686	18789	969
0	33692	18789	959
0	33698	18789	949
0	33704	18789	939
0	33710	18789	929
0	33716	18789	919
0	33722	18789	909
0	33728	18789	899
0	33734	18789	889
0	33740	18789	879
0	33746	18789	869
0	33752	18789	859
0	33758	18789	849
0	33764	18789	839
0	33789	18799	839
0	33817	18809	839
0	33845	18819	839
0	33873	18829	839
0	33901	18839	839
0	33929	18849	839
0	33957	18859	839
0	33985	18869	839
0	34013	18879	839
0	34041	18889	839
0	34069	18899	839
0	34097	18909	839
0	34125	18919	839
0	34153	18929	839
0	34182	18939	839
0	34209	18949	839
0	34236	18959	839
0	34263	18969	839
0	34290	18979	839
0	34317	18989	839
0	34344	18999	839
0	34371	19009	839
0	34398	19019	839
0	34427	19029	839
0	34454	19039	839
0	34481	19049	839
0	34508	19059	839
0	34535	19069	839
0	34562	19079	839
0	34589	19089	839
0	34616	19099	839
0	34644	19109	839
0	34671	19119	839
0	34698	19129	839
0	34725	19139	839
0	34752	19149	839
0	34779	19159	839
0	34806	19169	839
0	34833	19179	839
0	34860	19189	839
0	34888	19199	839
0	34915	19209	839
0	34941	19219	839
0	34967	19229	839
0	34993	19239	839
0	35019	19249	839
0	35045	19259	839
0	35071	19269	839
0	35097	19279	839
0	35123	19289	839
0	35149	19299	839
0	35175	19309	839
0	35201	19319	839
0	35227	19329	839
0	35253	19339	839
0	35279	19349	839
0	35305	19359	839
0	35331	19369	839
0	35357	19379	839
0	35383	19389	839
0	35409	19399	839
0	35435	19409	839
0	35461	19419	839
0	35487	19429	839
0	35513	19439	839
0	35539	19449	839
0	35565	19459	839
0	35591	19469	839
0	35617	19479	839
0	35643	19489	839
0	35669	19499	839
0	35695	19509	839
0	35721	19519	839
0	35747	19529	839
0	35773	19539	839
0	35799	19549	839
0	35825	19559	839
0	35851	19569	839
0	35877	19579	839
0	35903	19589	839
0	35931	19599	839
0	35957	19609	839
0	35983	19619	839
0	36009	19629	839
0	36035	19639	839
0	36061	19649	839
0	36087	19659	839
0	36113	19669	839
0	36139	19679	839
0	36165	19689	839
0	36191	19699	839
0	36217	19709	839
0	36243	19719	839
0	36269	19729	839
0	36295	19739	839
0	36321	19749	839
0	36347	19759	839
0	36373	19769	839
0	36403	19778	838
0	36431	19788	838
0	36459	19798	838
0	36487	19808	838
0	36515	19818	838
0	36543	19828	838
0	36571	19838	838
0	36599	19848	838
0	36627	19858	838
0	36655	19868	838
0	36683	19878	838
0	36713	19888	838
0	36742	19898	838
0	36771	19908	838
0	36801	19918	838
0	36830	19928	838
0	36859	19938	838
0	36888	19948	838
0	36917	19958	838
0	36946	19968	838
0	36975	19978	838
0	37004	19988	838
0	37033	19998	838
0	37062	20008	838
0	37091	20018	838
0	37120	20028	838
0	37149	20038	838
0	37178	20048	838
0	37208	20058	838
0	37239	20068	838
0	37270	20078	838
0	37301	20088	838
0	37332	20098	838
0	37363	20108	838
0	37395	20118	838
0	37423	20128	838
0	37451	20138	838
0	37479	20148	838
0	37507	20158	838
0	37535	20168	838
0	37563	20178	838
0	37591	20188	838
0	37619	20198	838
0	37647	20208	838
0	37675	20218	838
0	37703	20228	838
0	37731	20238	838
0	37759	20248	838
0	37787	20258	838
0	37815	20268	838
0	37843	20278	838
0	37871	20288	838
0	37899	20298	838
0	37927	20308	838
0	37955	20318	838
0	37983	20328	838
0	38011	20338	838
0	38039	20348	838
0	38067	20358	838
0	38095	20368	838
0	38123	20378	838
0	38151	20388	838
0	38179	20398	838
0	38207	20408	838
0	38235	20418	838
0	38263	20428	838
0	38291	20438	838
0	38319	20448	838
0	38347	20458	838
0	38375	20468	838
0	38405	20478	838
0	38433	20488	838
0	38461	20498	838
0	38489	20508	838
0	38517	20518	838
0	38545	20528	838
0	38573	20538	838
0	38598	20548	838
0	38623	20558	838
0	38648	20568	838
0	38673	20578	838
0	38698	20588	838
0	38723	20598	838
0	38748	20608	838
0	38773	20618	838
0	38798	20628	838
0	38823	20638	838
0	38848	20648	838
0	38873	20658	838
0	38898	20668	838
0	38923	20678	838
0	38948	20688	838
0	38973	20698	838
0	38998	20708	838
0	39023	20718	838
0	39048	20728	838
0	39073	20738	838
0	39098	20748	838
0	39123	20758	838
0	39148	20768	838
0	39173	20778	838
0	39198	20788	838
0	39224	20798	838
0	39239	20808	838
0	39254	20818	838
0	39271	20828	838
0	39287	20838	838
0	39303	20848	838
0	39319	20858	838
0	39335	20868	838
0	39351	20878	838
0	39367	20888	838
0	39404	20958	838
0	39420	20968	838
0	39436	20978	838
0	39452	20988	838
0	39470	20998	838
0	39486	21008	838
0	39502	21018	838
0	39518	21028	838
0	39534	21038	838
0	39550	21048	838
0	39566	21058	838
0	39582	21068	838
0	39598	21078	838
0	39614	21088	838
0	39630	21098	838
0	39646	21108	838
0	39662	21118	838
0	39678	21128	838
0	39694	21138	838
0	39710	21148	838
0	39726	21158	838
0	39743	21168	838
0	39759	21178	838
0	39775	21188	838
0	39791	21198	838
0	39807	21208	838
0	39825	21218	838
0	39842	21228	838
0	39859	21238	838
0	39876	21248	838
0	39893	21258	838
0	39910	21268	838
0	39927	21278	838
0	39944	21288	838
0	39961	21298	838
0	39978	21308	838
0	39995	21318	838
0	40012	21328	838
0	40029	21338	838
0	40046	21348	838
0	40063	21358	838
0	40080	21368	838
0	45255	26373	2923
0	45263	26373	2913
0	45269	26373	2903
0	45275	26373	2893
0	45281	26373	2883
0	45287	26373	2873
0	45293	26373	2863
0	45299	26373	2853
0	45305	26373	2843
0	45311	26373	2833
0	45317	26373	2823
0	45323	26373	2813
0	45329	26373	2803
0	45335	26373	2793
0	45341	26373	2783
0	45347	26373	2773
0	45353	26373	2763
0	45359	26373	2753
0	45365	26373	2743
0	45371	26373	2733
0	45377	26373	2723
0	45383	26373	2713
0	45389	26373	2703
0	45395	26373	2693
0	45401	26373	2683
0	45407	26373	2673
0	45413	26373	2663
0	45419	26373	2653
0	45425	26373	2643
0	45431	26373	2633
0	45437	26373	2623
0	45443	26373	2613
0	45449	26373	2603
0	45455	26373	2593
0	45461	26373	2583
0	45467	26373	2573
0	45473	26373	2563
0	45479	26373	2553
0	45485	26373	2543
0	45491	26373	2533
0	45497	26373	2523
0	45503	26373	2513
0	45509	26373	2503
0	45515	26373	2493
0	45521	26373	2483
0	45527	26373	2473
0	45533	26373	2463
0	45539	26373	2453
0	45545	26373	2443
0	45551	26373	2433
0	45557	26373	2423
0	45563	26373	2413
0	45569	26373	2403
0	45575	26373	2393
0	45581	26373	2383
0	45587	26373	2373
0	45593	26373	2363
0	45599	26373	2353
0	45605	26373	2343
0	45611	26373	2333
0	45617	26373	2323
0	45623	26373	2313
0	45629	26373	2303
0	45635	26373	2293
0	45641	26373	2283
0	45647	26373	2273
0	45653	26373	2263
0	45659	26373	2253
0	45665	26373	2243
0	45671	26373	2233
0	45677	26373	2223
0	45683	26373	2213
0	45689	26373	2203
0	45695	26373	2193
0	45701	26373	2183
0	45707	26373	2173
0	45713	26373	2163
0	45719	26373	2153
0	45725	26373	2143
0	45731	26373	2133
0	45737	26373	2123
0	45743	26373	2113
0	45749	26373	2103
0	45755	26373	2093
0	45761	26373	2083
0	45767	26373	2073
0	45773	26373	2063
0	45779	26373	2053
0	45785	26373	2043
0	45791	26373	2033
0	45797	26373	2023
0	45803	26373	2013
0	45809	26373	2003
0	45815	26373	1993
0	45821	26373	1983
0	45827	26373	1973
0	45833	26373	1963
0	45839	26373	1953
0	45845	26373	1943
0	45851	26373	1933
0	45857	26373	1923
0	45863	26373	1913
0	45869	26373	1903
0	45875	26373	1893
0	45881	26373	1883
0	45887	26373	1873
0	45893	26373	1863
0	45899	26373	1853
0	45905	26373	1843
0	45911	26373	1833
0	45917	26373	1823
0	45923	26373	1813
0	45929	26373	1803
0	45935	26373	1793
0	45941	26373	1783
0	45947	26373	1773
0	45953	26373	1763
0	45959	26373	1753
0	45965	26373	1743
0	45971	26373	1733
0	45977	26373	1723
0	45983	26373	1713
0	45989	26373	1703
0	45995	26373	1693
0	46001	26373	1683
0	46007	26373	1673
0	46013	26373	1663
0	46019	26373	1653
0	46025	26373	1643
0	46031	26373	1633
0	46037	26373	1623
0	46043	26373	1613
0	46049	26373	1603
0	46055	26373	1593
0	46061	26373	1583
0	46067	26373	1573
0	46073	26373	1563
0	46079	26373	1553
0	46085	26373	1543
0	46091	26373	1533
0	46097	26373	1523
0	46103	26373	1513
0	46109	26373	1503
0	46115	26373	1493
0	46121	26373	1483
0	46127	26373	1473
0	46133	26373	1463
0	46139	26373	1453
0	46145	26373	1443
0	46151	26373	1433
0	46157	26373	1423
0	46163	26373	1413
0	46169	26373	1403
0	46175	26373	1393
0	46181	26373	1383
0	46187	26373	1373
0	46193	26373	1363
0	46199	26373	1353
0	46205	26373	1343
0	46211	26373	1333
0	46217	26373	1323
0	46223	26373	1313
0	46229	26373	1303
0	46235	26373	1293
0	46241	26373	1283
0	46247	26373	1273
0	46253	26373	1263
0	46259	26373	1253
0	46265	26373	1243
0	46271	26373	1233
0	46277	26373	1223
0	46283	26373	1213
0	46289	26373	1203
0	46295	26373	1193
0	46301	26373	1183
0	46307	26373	1173
0	46313	26373	1163
0	46319	26373	1153
0	46325	26373	1143
0	46331	26373	1133
0	46337	26373	1123
0	46343	26373	1113
0	46349	26373	1103
0	46355	26373	1093
0	46361	26373	1083
0	46367	26373	1073
0	46373	26373	1063
0	46379	26373	1053
0	46385	26373	1043
0	46391	26373	1033
0	46397	26373	1023
0	46403	26373	1013
0	46409	26373	1003
0	46415	26373	993
0	46421	26373	983
0	46427	26373	973
0	46433	26373	963
0	46439	26373	953
0	46445	26373	943
0	46451	26373	933
0	46457	26373	923
0	46463	26373	913
0	46469	26373	903
0	46475	26373	893
0	46481	26373	883
0	46487	26373	873
0	46493	26373	863
0	46499	26373	853
0	46505	26373	843
0	46511	26373	833
0	46538	26383	833
0	46567	26393	833
0	46598	26403	833
0	46627	26413	833
0	46656	26423	833
0	46685	26433	833
0	46716	26443	833
0	46746	26453	833
0	46776	26463	833
0	46806	26473	833
0	46836	26483	833
0	46866	26493	833
0	46896	26503	833
0	46926	26513	833
0	46956	26523	833
0	46986	26533	833
0	47016	26543	833
0	47046	26553	833
0	47076	26563	833
0	47106	26573	833
0	47136	26583	833
0	47166	26593	833
0	47196	26603	833
0	47226	26613	833
0	47256	26623	833
0	47286	26633	833
0	47316	26643	833
0	47346	26653	833
0	47376	26663	833
0	47406	26673	833
0	47436	26683	833
0	47466	26693	833
0	47497	26703	833
0	47527	26713	833
0	47557	26723	833
0	47587	26733	833
0	47619	26743	833
0	47650	26753	833
0	47683	26763	833
0	47713	26773	833
0	47743	26783	833
0	47775	26793	833
0	47805	26803	833
0	47835	26813	833
0	47865	26823	833
0	47895	26833	833
0	47925	26843	833
0	47955	26853	833
0	47985	26863	833
0	48015	26873	833
0	48045	26883	833
0	48075	26893	833
0	48106	26903	833
0	48136	26913	833
0	48166	26923	833
0	48196	26933	833
0	48226	26943	833
0	48256	26953	833
0	48287	26963	833
0	48316	26973	833
0	48345	26983	833
0	48374	26993	833
0	48403	27003	833
0	48432	27013	833
0	48461	27023	833
0	48490	27033	833
0	48516	27043	833
0	48542	27053	833
0	48568	27063	833
0	48594	27073	833
0	48620	27083	833
0	48646	27093	833
0	48672	27103	833
0	48698	27113	833
0	48724	27123	833
0	48750	27133	833
0	48776	27143	833
0	48802	27153	833
0	48828	27163	833
0	48854	27173	833
0	48880	27183	833
0	48906	27193	833
0	48934	27203	833
0	48961	27213	833
0	48990	27223	833
0	49018	27233	833
0	49046	27243	833
0	49074	27253	833
0	49103	27263	833
0	49131	27273	833
0	49159	27283	833
0	49187	27293	833
0	49215	27303	833
0	49243	27313	833
0	49271	27323	833
0	49299	27333	833
0	49327	27343	833
0	49354	27353	833
0	49381	27363	833
0	49408	27373	833
0	49435	27383	833
0	49462	27393	833
0	49489	27403	833
0	49516	27413	833
0	49543	27423	833
0	49570	27433	833
0	49597	27443	833
0	49624	27453	833
0	49651	27463	833
0	49678	27473	833
0	49705	27483	833
0	49732	27493	833
0	49759	27503	833
0	49786	27513	833
0	49813	27523	833
0	49842	27533	833
0	49869	27543	833
0	49896	27553	833
0	49923	27563	833
0	49950	27573	833
0	49976	27583	833
0	50002	27593	833
0	50028	27603	833
0	50054	27613	833
0	50080	27623	833
0	50106	27633	833
0	50132	27643	833
0	50158	27653	833
0	50184	27663	833
0	50210	27673	833
0	50236	27683	833
0	50262	27693	833
0	50288	27703	833
0	50314	27713	833
0	50340	27723	833
0	50367	27733	833
0	50392	27743	833
0	50419	27753	833
0	50444	27763	833
0	50469	27773	833
0	50494	27783	833
0	50519	27793	833
0	50544	27803	833
0	50569	27813	833
0	50594	27823	833
0	50619	27833	833
0	50644	27843	833
0	50669	27853	833
0	50694	27863	833
0	57109	31873	4833
0	57118	31873	4823
0	57124	31873	4813
0	57130	31873	4803
0	57136	31873	4793
0	57142	31873	4783
0	57148	31873	4773
0	57154	31873	4763
0	57160	31873	4753
0	57166	31873	4743
0	57172	31873	4733
0	57178	31873	4723
0	57184	31873	4713
0	57190	31873	4703
0	57196	31873	4693
0	57202	31873	4683
0	57208	31873	4673
0	57214	31873	4663
0	57220	31873	4653
0	57226	31873	4643
0	57232	31873	4633
0	57238	31873	4623
0	57244	31873	4613
0	57250	31873	4603
0	57256	31873	4593
0	57262	31873	4583
0	57268	31873	4573
0	57274	31873	4563
0	57280	31873	4553
0	57286	31873	4543
0	57292	31873	4533
0	57298	31873	4523
0	57304	31873	4513
0	57310	31873	4503
0	57316	31873	4493
0	57322	31873	4483
0	57328	31873	4473
0	57334	31873	4463
0	57340	31873	4453
0	57346	31873	4443
0	57352	31873	4433
0	57358	31873	4423
0	57364	31873	4413
0	57370	31873	4403
0	57376	31873	4393
0	57382	31873	4383
0	57388	31873	4373
0	57394	31873	4363
0	57400	31873	4353
0	57406	31873	4343
0	57412	31873	4333
0	57418	31873	4323
0	57424	31873	4313
0	57430	31873	4303
0	57436	31873	4293
0	57442	31873	4283
0	57448	31873	4273
0	57454	31873	4263
0	57460	31873	4253
0	57466	31873	4243
0	57472	31873	4233
0	57478	31873	4223
0	57484	31873	4213
0	57490	31873	4203
0	57496	31873	4193
0	57502	31873	4183
0	57508	31873	4173
0	57514	31873	4163
0	57520	31873	4153
0	57526	31873	4143
0	57532	31873	4133
0	57538	31873	4123
0	57544	31873	4113
0	57550	31873	4103
0	57556	31873	4093
0	57562	31873	4083
0	57568	31873	4073
0	57574	31873	4063
0	57580	31873	4053
0	57586	31873	4043
0	57592	31873	4033
0	57598	31873	4023
0	57604	31873	4013
0	57610	31873	4003
0	57616	31873	3993
0	57622	31873	3983
0	57628	31873	3973
0	57634	31873	3963
0	57640	31873	3953
0	57646	31873	3943
0	57652	31873	3933
0	57658	31873	3923
0	57664	31873	3913
0	57670	31873	3903
0	57676	31873	3893
0	57682	31873	3883
0	57688	31873	3873
0	57694	31873	3863
0	57700	31873	3853
0	57706	31873	3843
0	57712	31873	3833
0	57718	31873	3823
0	57724	31873	3813
0	57730	31873	3803
0	57736	31873	3793
0	57742	31873	3783
0	57748	31873	3773
0	57754	31873	3763
0	57760	31873	3753
0	57766	31873	3743
0	57772	31873	3733
0	57778	31873	3723
0	57784	31873	3713
0	57790	31873	3703
0	57796	31873	3693
0	57802	31873	3683
0	57808	31873	3673
0	57814	31873	3663
0	57820	31873	3653
0	57826	31873	3643
0	57832	31873	3633
0	57838	31873	3623
0	57844	31873	3613
0	57850	31873	3603
0	57856	31873	3593
0	57862	31873	3583
0	57868	31873	3573
0	57874	31873	3563
0	57880	31873	3553
0	57886	31873	3543
0	57892	31873	3533
0	57898	31873	3523
0	57904	31873	3513
0	57910	31873	3503
0	57916	31873	3493
0	57922	31873	3483
0	57928	31873	3473
0	57934	31873	3463
0	57940	31873	3453
0	57946	31873	3443
0	57952	31873	3433
0	57958	31873	3423
0	57964	31873	3413
0	57970	31873	3403
0	57976	31873	3393
0	57982	31873	3383
0	57988	31873	3373
0	57994	31873	3363
0	58000	31873	3353
0	58006	31873	3343
0	58012	31873	3333
0	58018	31873	3323
0	58024	31873	3313
0	58030	31873	3303
0	58036	31873	3293
0	58042	31873	3283
0	58048	31873	3273
0	58054	31873	3263
0	58060	31873	3253
0	58066	31873	3243
0	58072	31873	3233
0	58078	31873	3223
0	58084	31873	3213
0	58090	31873	3203
0	58096	31873	3193
0	58102	31873	3183
0	58108	31873	3173
0	58114	31873	3163
0	58120	31873	3153
0	58126	31873	3143
0	58132	31873	3133
0	58138	31873	3123
0	58144	31873	3113
0	58150	31873	3103
0	58156	31873	3093
0	58162	31873	3083
0	58168	31873	3073
0	58174	31873	3063
0	58180	31873	3053
0	58186	31873	3043
0	58192	31873	3033
0	58198	31873	3023
0	58204	31873	3013
0	58210	31873	3003
0	58216	31873	2993
0	58222	31873	2983
0	58228	31873	2973
0	58234	31873	2963
0	58240	31873	2953
0	58246	31873	2943
0	58252	31873	2933
0	58258	31873	2923
0	58264	31873	2913
0	58270	31873	2903
0	58276	31873	2893
0	58282	31873	2883
0	58288	31873	2873
0	58294	31873	2863
0	58300	31873	2853
0	58306	31873	2843
0	58312	31873	2833
0	58318	31873	2823
0	58324	31873	2813
0	58330	31873	2803
0	58336	31873	2793
0	58342	31873	2783
0	58348	31873	2773
0	58354	31873	2763
0	58360	31873	2753
0	58366	31873	2743
0	58372	31873	2733
0	58378	31873	2723
0	58384	31873	2713
0	58390	31873	2703
0	58396	31873	2693
0	58402	31873	2683
0	58408	31873	2673
0	58414	31873	2663
0	58420	31873	2653
0	58426	31873	2643
0	58432	31873	2633
0	58438	31873	2623
0	58444	31873	2613
0	58450	31873	2603
0	58456	31873	2593
0	58462	31873	2583
0	58468	31873	2573
0	58474	31873	2563
0	58480	31873	2553
0	58486	31873	2543
0	58492	31873	2533
0	58498	31873	2523
0	58504	31873	2513
0	58510	31873	2503
0	58516	31873	2493
0	58522	31873	2483
0	58528	31873	2473
0	58534	31873	2463
0	58540	31873	2453
0	58546	31873	2443
0	58552	31873	2433
0	58558	31873	2423
0	58564	31873	2413
0	58570	31873	2403
0	58576	31873	2393
0	58582	31873	2383
0	58588	31873	2373
0	58594	31873	2363
0	58600	31873	2353
0	58606	31873	2343
0	58612	31873	2333
0	58618	31873	2323
0	58624	31873	2313
0	58630	31873	2303
0	58636	31873	2293
0	58642	31873	2283
0	58648	31873	2273
0	58654	31873	2263
0	58660	31873	2253
0	58666	31873	2243
0	58672	31873	2233
0	58678	31873	2223
0	58684	31873	2213
0	58690	31873	2203
0	58696	31873	2193
0	58702	31873	2183
0	58708	31873	2173
0	60002	32436	2726
0	60011	32436	2716
0	60017	32436	2706
0	60023	32436	2696
0	60029	32436	2686
0	60035	32436	2676
0	60041	32436	2666
0	60047	32436	2656
0	60053	32436	2646
0	60059	32436	2636
0	60065	32436	2626
0	60071	32436	2616
0	60077	32436	2606
0	60083	32436	2596
0	60089	32436	2586
0	60095	32436	2576
0	60101	32436	2566
0	60107	32436	2556
0	60113	32436	2546
0	60119	32436	2536
0	60125	32436	2526
0	60131	32436	2516
0	60137	32436	2506
0	60143	32436	2496
0	60149	32436	2486
0	60155	32436	2476
0	60161	32436	2466
0	60167	32436	2456
0	60173	32436	2446
0	60179	32436	2436
0	60185	32436	2426
0	60191	32436	2416
0	60197	32436	2406
0	60203	32436	2396
0	60209	32436	2386
0	60215	32436	2376
0	60221	32436	2366
0	60227	32436	2356
0	60233	32436	2346
0	60239	32436	2336
0	60245	32436	2326
0	60251	32436	2316
0	60257	32436	2306
0	60263	32436	2296
0	60269	32436	2286
0	60275	32436	2276
0	60281	32436	2266
0	60287	32436	2256
0	60293	32436	2246
0	60299	32436	2236
0	60305	32436	2226
0	60311	32436	2216
0	60317	32436	2206
0	60323	32436	2196
0	60329	32436	2186
0	60335	32436	2176
0	60341	32436	2166
0	60347	32436	2156
0	60353	32436	2146
0	60359	32436	2136
0	60365	32436	2126
0	60371	32436	2116
0	60377	32436	2106
0	60383	32436	2096
0	60389	32436	2086
0	60395	32436	2076
0	60401	32436	2066
0	60407	32436	2056
0	60413	32436	2046
0	60419	32436	2036
0	60425	32436	2026
0	60431	32436	2016
0	60437	32436	2006
0	60443	32436	1996
0	60449	32436	1986
0	60455	32436	1976
0	60461	32436	1966
0	60467	32436	1956
0	60473	32436	1946
0	60479	32436	1936
0	60485	32436	1926
0	60491	32436	1916
0	60497	32436	1906
0	60503	32436	1896
0	60509	32436	1886
0	60515	32436	1876
0	60521	32436	1866
0	60527	32436	1856
0	60533	32436	1846
0	60539	32436	1836
0	60545	32436	1826
0	60551	32436	1816
0	60557	32436	1806
0	60563	32436	1796
0	60569	32436	1786
0	60575	32436	1776
0	60581	32436	1766
0	60587	32436	1756
0	60593	32436	1746
0	60599	32436	1736
0	60605	32436	1726
0	60611	32436	1716
0	60617	32436	1706
0	60623	32436	1696
0	60629	32436	1686
0	60635	32436	1676
0	60641	32436	1666
0	60647	32436	1656
0	60653	32436	1646
0	60659	32436	1636
0	60665	32436	1626
0	60671	32436	1616
0	60677	32436	1606
0	60683	32436	1596
0	60689	32436	1586
0	60695	32436	1576
0	60701	32436	1566
0	60707	32436	1556
0	60713	32436	1546
0	60719	32436	1536
0	60725	32436	1526
0	60731	32436	1516
0	60737	32436	1506
0	60743	32436	1496
0	60749	32436	1486
0	60755	32436	1476
0	60761	32436	1466
0	60767	32436	1456
0	60773	32436	1446
0	60779	32436	1436
0	60785	32436	1426
0	60791	32436	1416
0	60797	32436	1406
0	60803	32436	1396
0	60809	32436	1386
0	60815	32436	1376
0	60821	32436	1366
0	60827	32436	1356
0	60833	32436	1346
0	60839	32436	1336
0	60845	32436	1326
0	60851	32436	1316
0	60857	32436	1306
0	60863	32436	1296
0	60869	32436	1286
0	60875	32436	1276
0	60881	32436	1266
0	60887	32436	1256
0	60893	32436	1246
0	60899	32436	1236
0	60905	32436	1226
0	60911	32436	1216
0	60917	32436	1206
0	60923	32436	1196
0	60929	32436	1186
0	60935	32436	1176
0	60941	32436	1166
0	60947	32436	1156
0	60953	32436	1146
0	60959	32436	1136
0	60965	32436	1126
0	60971	32436	1116
0	60977	32436	1106
0	60983	32436	1096
0	60989	32436	1086
0	60995	32436	1076
0	61001	32436	1066
0	61007	32436	1056
0	61013	32436	1046
0	61019	32436	1036
0	61025	32436	1026
0	61031	32436	1016
0	61037	32436	1006
0	61043	32436	996
0	61049	32436	986
0	61055	32436	976
0	61061	32436	966
0	61067	32436	956
0	61073	32436	946
0	61079	32436	936
0	61085	32436	926
0	61091	32436	916
0	61097	32436	906
0	61103	32436	896
0	61109	32436	886
0	61115	32436	876
0	61121	32436	866
0	61127	32436	856
0	61133	32436	846
0	61139	32436	836
0	61158	32443	833
0	61180	32453	833
0	61202	32463	833
0	61224	32473	833
0	61246	32483	833
0	61268	32493	833
0	61290	32503	833
0	61312	32513	833
0	61334	32523	833
0	61356	32533	833
0	61378	32543	833
0	61400	32553	833
0	61422	32563	833
0	61444	32573	833
0	61466	32583	833
0	61488	32593	833
0	61510	32603	833
0	61532	32613	833
0	61554	32623	833
0	61576	32633	833
0	61598	32643	833
0	61620	32653	833
0	61642	32663	833
0	61664	32673	833
0	61686	32683	833
0	61708	32693	833
0	61730	32703	833
0	61752	32713	833
0	61774	32723	833
0	61796	32733	833
0	61819	32743	833
0	61841	32753	833
0	61863	32763	833
0	61886	32773	833
0	61908	32783	833
0	61930	32793	833
0	61952	32803	833
0	61974	32813	833
0	61996	32823	833
0	62018	32833	833
0	62040	32843	833
0	62061	32853	833
0	62082	32863	833
0	62105	32873	833
0	62126	32883	833
0	62147	32893	833
0	62168	32903	833
0	62189	32913	833
0	62210	32923	833
0	62231	32933	833
0	62252	32943	833
0	62273	32953	833
0	62294	32963	833
0	62315	32973	833
0	62336	32983	833
0	62357	32993	833
0	62378	33003	833
0	62399	33013	833
0	62420	33023	833
0	62441	33033	833
0	62464	33043	833
0	62486	33053	833
0	62508	33063	833
0	62530	33073	833
0	62552	33083	833
0	62574	33093	833
0	62596	33103	833
0	62618	33113	833
0	62640	33123	833
0	62662	33133	833
0	65547	35583	943
0	65560	35583	933
0	65573	35583	923
0	65584	35583	913
0	65597	35583	903
0	65608	35583	893
0	65621	35583	883
0	65632	35583	873
0	65645	35583	863
0	65656	35583	853
0	65669	35583	843
0	65676	35583	833
0	65711	35593	833
0	65748	35603	833
0	67144	36200	1420
0	67157	36200	1410
0	67169	36200	1400
0	67175	36200	1390
0	67181	36200	1380
0	67187	36200	1370
0	67193	36200	1360
0	67199	36200	1350
0	67205	36200	1340
0	67211	36200	1330
0	67217	36200	1320
0	67223	36200	1310
0	67229	36200	1300
0	67235	36200	1290
0	67241	36200	1280
0	67247	36200	1270
0	67253	36200	1260
0	67259	36200	1250
0	67265	36200	1240
0	67271	36200	1230
0	67277	36200	1220
0	67283	36200	1210
0	67289	36200	1200
0	67295	36200	1190
0	67301	36200	1180
0	67307	36200	1170
0	67313	36200	1160
0	67319	36200	1150
0	67325	36200	1140
0	67331	36200	1130
0	67337	36200	1120
0	67343	36200	1110
0	67349	36200	1100
0	67355	36200	1090
0	67361	36200	1080
0	67367	36200	1070
0	67373	36200	1060
0	67379	36200	1050
0	67385	36200	1040
0	67391	36200	1030
0	67397	36200	1020
0	67403	36200	1010
0	67409	36200	1000
0	67415	36200	990
0	67421	36200	980
0	67427	36200	970
0	67433	36200	960
0	67439	36200	950
0	67445	36200	940
0	67451	36200	930
0	67457	36200	920
0	67463	36200	910
0	67469	36200	900
0	67475	36200	890
0	67481	36200	880
0	67487	36200	870
0	67493	36200	860
0	67499	36200	850
0	67505	36200	840
0	67517	36203	833
0	67544	36213	833
0	67571	36223	833
0	67598	36233	833
0	67625	36243	833
0	67652	36253	833
0	67679	36263	833
0	67706	36273	833
0	67733	36283	833
0	67760	36293	833
0	67787	36303	833
0	67814	36313	833
0	67843	36323	833
0	67870	36333	833
0	67897	36343	833
0	67924	36353	833
0	67951	36363	833
0	67978	36373	833
0	68005	36383	833
0	68032	36393	833
0	68059	36403	833
0	68086	36413	833
0	68113	36423	833
0	68140	36433	833
0	68167	36443	833
0	68194	36453	833
0	68221	36463	833
0	68250	36473	833
0	68282	36483	833
0	68313	36493	833
0	68342	36503	833
0	68371	36513	833
0	68400	36523	833
0	68429	36533	833
0	68458	36543	833
0	68487	36553	833
0	68516	36563	833
0	68545	36573	833
0	68574	36583	833
0	68603	36593	833
0	68634	36603	833
0	68663	36613	833
0	68692	36623	833
0	68721	36633	833
0	68752	36643	833
0	68782	36653	833
0	68812	36663	833
0	68842	36673	833
0	68872	36683	833
0	68902	36693	833
0	68932	36703	833
0	68962	36713	833
0	68991	36723	833
0	69020	36733	833
0	69049	36743	833
0	69077	36753	833
0	69105	36763	833
0	69133	36773	833
0	69161	36783	833
0	69189	36793	833
0	69217	36803	833
0	69245	36813	833
0	69273	36823	833
0	69301	36833	833
0	69329	36843	833
0	69357	36853	833
0	69385	36863	833
0	69415	36873	833
0	69444	36883	833
0	69472	36893	833
0	69500	36903	833
0	69528	36913	833
0	69556	36923	833
0	69584	36933	833
0	69612	36943	833
0	69640	36953	833
0	69668	36963	833
0	69696	36973	833
0	69724	36983	833
0	69752	36993	833
0	69780	37003	833
0	71859	37853	1673
0	71868	37853	1663
0	71874	37853	1653
0	71880	37853	1643
0	71886	37853	1633
0	71892	37853	1623
0	71898	37853	1613
0	71904	37853	1603
0	71910	37853	1593
0	71916	37853	1583
0	71922	37853	1573
0	71928	37853	1563
0	71934	37853	1553
0	71940	37853	1543
0	71946	37853	1533
0	71952	37853	1523
0	71958	37853	1513
0	71964	37853	1503
0	71970	37853	1493
0	71976	37853	1483
0	71982	37853	1473
0	71988	37853	1463
0	71994	37853	1453
0	72000	37853	1443
0	72006	37853	1433
0	72012	37853	1423
0	72018	37853	1413
0	72024	37853	1403
0	72030	37853	1393
0	72036	37853	1383
0	72042	37853	1373
0	72048	37853	1363
0	72054	37853	1353
0	72060	37853	1343
0	72066	37853	1333
0	72072	37853	1323
0	72078	37853	1313
0	72084	37853	1303
0	72090	37853	1293
0	72096	37853	1283
0	72102	37853	1273
0	72108	37853	1263
0	72114	37853	1253
0	72120	37853	1243
0	72126	37853	1233
0	72132	37853	1223
0	72138	37853	1213
0	72144	37853	1203
0	72150	37853	1193
0	72156	37853	1183
0	72162	37853	1173
0	72168	37853	1163
0	72174	37853	1153
0	72180	37853	1143
0	72186	37853	1133
0	72192	37853	1123
0	72198	37853	1113
0	72204	37853	1103
0	72210	37853	1093
0	72216	37853	1083
0	72222	37853	1073
0	72228	37853	1063
0	72234	37853	1053
0	72240	37853	1043
0	72246	37853	1033
0	72252	37853	1023
0	72258	37853	1013
0	72264	37853	1003
0	72270	37853	993
0	72276	37853	983
0	72282	37853	973
0	72288	37853	963
0	72294	37853	953
0	72300	37853	943
0	72306	37853	933
0	72312	37853	923
0	72318	37853	913
0	72324	37853	903
0	72330	37853	893
0	72336	37853	883
0	72342	37853	873
0	72348	37853	863
0	72354	37853	853
0	72360	37853	843
0	72366	37853	833
0	72396	37863	833
0	72428	37873	833
0	72460	37883	833
0	72492	37893	833
0	72524	37903	833
0	72556	37913	833
0	72588	37923	833
0	72620	37933	833
0	72652	37943	833
0	72684	37953	833
0	72716	37963	833
0	72748	37973	833
0	72780	37983	833
0	72812	37993	833
0	72844	38003	833
0	72876	38013	833
0	72908	38023	833
0	72940	38033	833
0	72972	38043	833
0	73004	38053	833
0	73036	38063	833
0	73068	38073	833
0	73102	38083	833
0	73134	38093	833
0	73167	38103	833
0	73197	38113	833
0	73227	38123	833
0	73257	38133	833
0	73287	38143	833
0	73317	38153	833
0	73348	38163	833
0	73378	38173	833
0	73408	38183	833
0	73438	38193	833
0	73468	38203	833
0	73498	38213	833
0	73528	38223	833
0	73560	38233	833
0	73590	38243	833
0	73620	38253	833
0	73650	38263	833
0	73680	38273	833
0	73710	38283	833
0	73740	38293	833
0	73770	38303	833
0	73800	38313	833
0	73830	38323	833
0	73860	38333	833
0	73890	38343	833
0	73920	38353	833
0	73950	38363	833
0	73980	38373	833
0	74010	38383	833
0	74040	38393	833
0	74070	38403	833
0	74100	38413	833
0	74130	38423	833
0	74160	38433	833
0	74190	38443	833
0	74219	38453	833
0	74248	38463	833
0	74277	38473	833
0	74306	38483	833
0	74335	38493	833
0	74364	38503	833
0	74393	38513	833
0	74422	38523	833
0	74451	38533	833
0	74480	38543	833
0	74509	38553	833
0	74538	38563	833
0	74567	38573	833
0	74596	38583	833
0	74625	38593	833
0	74654	38603	833
0	74683	38613	833
0	74712	38623	833
0	74741	38633	833
0	74770	38643	833
0	74799	38653	833
0	74828	38663	833
0	74857	38673	833
0	74888	38683	833
0	74917	38693	833
0	74946	38703	833
0	74975	38713	833
0	75004	38723	833
0	75033	38733	833
0	75062	38743	833
0	75091	38753	833
0	75120	38763	833
0	75149	38773	833
0	75178	38783	833
0	75207	38793	833
0	75236	38803	833
0	75265	38813	833
0	75295	38823	833
0	75324	38833	833
0	75353	38843	833
0	75382	38853	833
0	75411	38863	833
0	75440	38873	833
0	75469	38883	833
0	75498	38893	833
0	75527	38903	833
0	75556	38913	833
0	75585	38923	833
0	75614	38933	833
0	79828	42728	1958
0	79835	42728	1948
0	79841	42728	1938
0	79847	42728	1928
0	79853	42728	1918
0	79859	42728	1908
0	79865	42728	1898
0	79871	42728	1888
0	79877	42728	1878
0	79883	42728	1868
0	79889	42728	1858
0	79895	42728	1848
0	79901	42728	1838
0	79907	42728	1828
0	79913	42728	1818
0	79919	42728	1808
0	79925	42728	1798
0	79931	42728	1788
0	79937	42728	1778
0	79943	42728	1768
0	79949	42728	1758
0	79955	42728	1748
0	79961	42728	1738
0	79967	42728	1728
0	79973	42728	1718
0	79979	42728	1708
0	79985	42728	1698
0	79991	42728	1688
0	79997	42728	1678
0	80003	42728	1668
0	80009	42728	1658
0	80015	42728	1648
0	80021	42728	1638
0	80027	42728	1628
0	80033	42728	1618
0	80039	42728	1608
0	80045	42728	1598
0	80051	42728	1588
0	80057	42728	1578
0	80063	42728	1568
0	80069	42728	1558
0	80075	42728	1548
0	80081	42728	1538
0	80087	42728	1528
0	80093	42728	1518
0	80099	42728	1508
0	80105	42728	1498
0	80111	42728	1488
0	80117	42728	1478
0	80123	42728	1468
0	80129	42728	1458
0	80135	42728	1448
0	80141	42728	1438
0	80147	42728	1428
0	80153	42728	1418
0	80159	42728	1408
0	80165	42728	1398
0	80171	42728	1388
0	80177	42728	1378
0	80183	42728	1368
0	80189	42728	1358
0	80195	42728	1348
0	80201	42728	1338
0	80207	42728	1328
0	80213	42728	1318
0	80219	42728	1308
0	80225	42728	1298
0	80231	42728	1288
0	80237	42728	1278
0	80243	42728	1268
0	80249	42728	1258
0	80255	42728	1248
0	80261	42728	1238
0	80267	42728	1228
0	80273	42728	1218
0	80279	42728	1208
0	80285	42728	1198
0	80291	42728	1188
0	80297	42728	1178
0	80303	42728	1168
0	80309	42728	1158
0	80315	42728	1148
0	80321	42728	1138
0	80327	42728	1128
0	80333	42728	1118
0	80339	42728	1108
0	80345	42728	1098
0	80351	42728	1088
0	80357	42728	1078
0	80363	42728	1068
0	80369	42728	1058
0	80375	42728	1048
0	80381	42728	1038
0	80387	42728	1028
0	80393	42728	1018
0	80399	42728	1008
0	80405	42728	998
0	80411	42728	988
0	80417	42728	978
0	80423	42728	968
0	80429	42728	958
0	80435	42728	948
0	80441	42728	938
0	80447	42728	928
0	80453	42728	918
0	80459	42728	908
0	80465	42728	898
0	80471	42728	888
0	80477	42728	878
0	80483	42728	868
0	80489	42728	858
0	80495	42728	848
0	80501	42728	838
0	80523	42738	838
0	80546	42748	838
0	80569	42758	838
0	80592	42768	838
0	80617	42778	838
0	80640	42788	838
0	80663	42798	838
0	80686	42808	838
0	80709	42818	838
0	80732	42828	838
0	80755	42838	838
0	80778	42848	838
0	80801	42858	838
0	80824	42868	838
0	80847	42878	838
0	80870	42888	838
0	80893	42898	838
0	80916	42908	838
0	80939	42918	838
0	80962	42928	838
0	80985	42938	838
0	81008	42948	838
0	81033	42958	838
0	81058	42968	838
0	81082	42978	838
0	81106	42988	838
0	81130	42998	838
0	81154	43008	838
0	81178	43018	838
0	81202	43028	838
0	81226	43038	838
0	81250	43048	838
0	81274	43058	838
0	81298	43068	838
0	81322	43078	838
0	81346	43088	838
0	81370	43098	838
0	81394	43108	838
0	81418	43118	838
0	81442	43128	838
0	81466	43138	838
0	81490	43148	838
0	81516	43158	838
0	81540	43168	838
0	81564	43178	838
0	81588	43188	838
0	81612	43198	838
0	81636	43208	838
0	81660	43218	838
0	81684	43228	838
0	81708	43238	838
0	81732	43248	838
0	81756	43258	838
0	81780	43268	838
0	81804	43278	838
0	81828	43288	838
0	81852	43298	838
0	81876	43308	838
0	81900	43318	838
0	81924	43328	838
0	81948	43338	838
0	81972	43348	838
0	81996	43358	838
0	82020	43368	838
0	82044	43378	838
0	82068	43388	838
0	82092	43398	838
0	82116	43408	838
0	82140	43418	838
0	82164	43428	838
0	82188	43438	838
0	82212	43448	838
0	82236	43458	838
0	82260	43468	838
0	82284	43478	838
0	82308	43488	838
0	82332	43498	838
0	82356	43508	838
0	82380	43518	838
0	82404	43528	838
0	82428	43538	838
0	82454	43548	838
0	82479	43558	838
0	82504	43568	838
0	82529	43578	838
0	82554	43588	838
0	82579	43598	838
0	82604	43608	838
0	82629	43618	838
0	82655	43628	838
0	82683	43638	838
0	82711	43648	838
0	82739	43658	838
0	82767	43668	838
0	82795	43678	838
0	82823	43688	838
0	82851	43698	838
0	82879	43708	838
0	82907	43718	838
0	82935	43728	838
0	82963	43738	838
0	82993	43748	838
0	83022	43758	838
0	83051	43768	838
0	83080	43778	838
0	83109	43788	838
0	83138	43798	838
0	83167	43808	838
0	83196	43818	838
0	83225	43828	838
0	83254	43838	838
0	83283	43848	838
0	83312	43858	838
0	83341	43868	838
0	83370	43878	838
0	83399	43888	838
0	83428	43898	838
0	83457	43908	838
0	83486	43918	838
0	83515	43928	838
0	83544	43938	838
0	83573	43948	838
0	83602	43958	838
0	83631	43968	838
0	83660	43978	838
0	83689	43988	838
0	83718	43998	838
0	83747	44008	838
0	83776	44018	838
0	83805	44028	838
0	83834	44038	838
0	83863	44048	838
0	83892	44058	838
0	83921	44068	838
0	83950	44078	838
0	83979	44088	838
0	84008	44098	838
0	84037	44108	838
0	84066	44118	838
0	84095	44128	838
0	84124	44138	838
0	84153	44148	838
0	84182	44158	838
0	84211	44168	838
0	84240	44178	838
0	84269	44188	838
0	84298	44198	838
0	84327	44208	838
0	84356	44218	838
0	84385	44228	838
0	84414	44238	838
0	84443	44248	838
0	84472	44258	838
0	84501	44268	838
0	84531	44278	838
0	84560	44288	838
0	84589	44298	838
0	84618	44308	838
0	84647	44318	838
0	84676	44328	838
0	84705	44338	838
0	84734	44348	838
0	84763	44358	838
0	84792	44368	838
0	84821	44378	838
0	84850	44388	838
0	84880	44398	838
0	84909	44408	838
0	84938	44418	838
0	84967	44428	838
0	84996	44438	838
0	85025	44448	838
0	85054	44458	838
0	89921	49513	1983
0	89933	49513	1973
0	89945	49513	1963
0	89956	49513	1953
0	89968	49513	1943
0	89979	49513	1933
0	89991	49513	1923
0	90002	49513	1913
0	90014	49513	1903
0	90025	49513	1893
0	90037	49513	1883
0	90048	49513	1873
0	90060	49513	1863
0	90071	49513	1853
0	90083	49513	1843
0	90094	49513	1833
0	90106	49513	1823
0	90117	49513	1813
0	90129	49513	1803
0	90140	49513	1793
0	90152	49513	1783
0	90163	49513	1773
0	90175	49513	1763
0	90186	49513	1753
0	90198	49513	1743
0	90209	49513	1733
0	90221	49513	1723
0	90232	49513	1713
0	90244	49513	1703
0	90255	49513	1693
0	90267	49513	1683
0	90278	49513	1673
0	90290	49513	1663
0	90301	49513	1653
0	90313	49513	1643
0	90324	49513	1633
0	90336	49513	1623
0	90347	49513	1613
0	90359	49513	1603
0	90370	49513	1593
0	90382	49513	1583
0	90393	49513	1573
0	90405	49513	1563
0	90416	49513	1553
0	90428	49513	1543
0	90439	49513	1533
0	90451	49513	1523
0	90462	49513	1513
0	90474	49513	1503
0	90485	49513	1493
0	90497	49513	1483
0	90508	49513	1473
0	90520	49513	1463
0	90531	49513	1453
0	90543	49513	1443
0	90554	49513	1433
0	90566	49513	1423
0	90577	49513	1413
0	90589	49513	1403
0	90600	49513	1393
0	90612	49513	1383
0	90623	49513	1373
0	90635	49513	1363
0	90646	49513	1353
0	90658	49513	1343
0	90669	49513	1333
0	90681	49513	1323
0	90692	49513	1313
0	90704	49513	1303
0	90715	49513	1293
0	90727	49513	1283
0	90738	49513	1273
0	90750	49513	1263
0	90761	49513	1253
0	90773	49513	1243
0	90784	49513	1233
0	90796	49513	1223
0	90807	49513	1213
0	90819	49513	1203
0	90830	49513	1193
0	90842	49513	1183
0	90853	49513	1173
0	90865	49513	1163
0	90876	49513	1153
0	90888	49513	1143
0	90899	49513	1133
0	90911	49513	1123
0	90922	49513	1113
0	90934	49513	1103
0	90945	49513	1093
0	90957	49513	1083
0	90968	49513	1073
0	90980	49513	1063
0	90991	49513	1053
0	91003	49513	1043
0	91014	49513	1033
0	91026	49513	1023
0	91037	49513	1013
0	91049	49513	1003
0	91060	49513	993
0	91072	49513	983
0	91083	49513	973
0	91095	49513	963
0	91106	49513	953
0	91118	49513	943
0	91129	49513	933
0	91141	49513	923
0	91152	49513	913
0	91164	49513	903
0	91175	49513	893
0	91187	49513	883
0	91198	49513	873
0	91210	49513	863
0	91221	49513	853
0	91233	49513	843
0	91240	49513	833
0	91273	49523	833
0	91306	49533	833
0	91339	49543	833
0	91375	49553	833
0	91409	49563	833
0	91445	49573	833
0	91479	49583	833
0	91513	49593	833
0	91547	49603	833
0	91581	49613	833
0	91615	49623	833
0	91649	49633	833
0	91683	49643	833
0	91717	49653	833
0	91751	49663	833
0	91785	49673	833
0	91819	49683	833
0	91853	49693	833
0	91887	49703	833
0	91921	49713	833
0	91955	49723	833
0	91989	49733	833
0	92023	49743	833
0	92057	49753	833
0	92091	49763	833
0	92125	49773	833
0	92159	49783	833
0	92193	49793	833
0	92227	49803	833
0	92261	49813	833
0	92295	49823	833
0	92332	49833	833
0	92367	49843	833
0	92402	49853	833
0	92437	49863	833
0	92472	49873	833
0	92507	49883	833
0	92542	49893	833
0	92577	49903	833
0	92612	49913	833
0	92646	49923	833
0	92680	49933	833
0	92714	49943	833
0	92748	49953	833
0	92782	49963	833
0	93825	50470	1330
0	93837	50470	1320
0	93851	50470	1310
0	93858	50470	1300
0	93864	50470	1290
0	93870	50470	1280
0	93876	50470	1270
0	93882	50470	1260
0	93888	50470	1250
0	93894	50470	1240
0	93900	50470	1230
0	93906	50470	1220
0	93912	50470	1210
0	93918	50470	1200
0	93924	50470	1190
0	93930	50470	1180
0	93936	50470	1170
0	93942	50470	1160
0	93948	50470	1150
0	93954	50470	1140
0	93960	50470	1130
0	93966	50470	1120
0	93972	50470	1110
0	93978	50470	1100
0	93984	50470	1090
0	93990	50470	1080
0	93996	50470	1070
0	94002	50470	1060
0	94008	50470	1050
0	94014	50470	1040
0	94020	50470	1030
0	94026	50470	1020
0	94032	50470	1010
0	94038	50470	1000
0	94044	50470	990
0	94050	50470	980
0	94056	50470	970
0	94062	50470	960
0	94068	50470	950
0	94074	50470	940
0	94080	50470	930
0	94086	50470	920
0	94092	50470	910
0	94098	50470	900
0	94104	50470	890
0	94110	50470	880
0	94116	50470	870
0	94122	50470	860
0	94128	50470	850
0	94134	50470	840
0	94145	50473	833
0	94173	50483	833
0	94201	50493	833
0	94230	50503	833
0	94258	50513	833
0	94286	50523	833
0	94314	50533	833
0	94342	50543	833
0	94370	50553	833
0	94398	50563	833
0	94426	50573	833
0	94454	50583	833
0	94482	50593	833
0	94510	50603	833
0	94538	50613	833
0	94566	50623	833
0	94594	50633	833
0	94622	50643	833
0	94650	50653	833
0	94677	50663	833
0	94704	50673	833
0	94731	50683	833
0	94758	50693	833
0	94785	50703	833
0	94812	50713	833
0	94842	50723	833
0	94870	50733	833
0	94898	50743	833
0	94926	50753	833
0	94957	50763	833
0	94986	50773	833
0	95015	50783	833
0	95044	50793	833
0	95073	50803	833
0	95104	50813	833
0	95133	50823	833
0	95162	50833	833
0	95191	50843	833
0	95220	50853	833
0	95249	50863	833
0	95278	50873	833
0	95307	50883	833
0	95336	50893	833
0	95365	50903	833
0	95394	50913	833
0	95426	50923	833
0	95456	50933	833
0	95486	50943	833
0	95516	50953	833
0	95546	50963	833
0	95576	50973	833
0	95606	50983	833
0	95636	50993	833
0	95668	51003	833
0	95698	51013	833
0	95728	51023	833
0	95755	51033	833
0	95782	51043	833
0	95809	51053	833
0	95836	51063	833
0	95863	51073	833
0	95890	51083	833
0	95917	51093	833
0	95944	51103	833
0	95971	51113	833
0	95998	51123	833
0	96027	51133	833
0	96054	51143	833
0	96081	51153	833
0	96108	51163	833
0	96135	51173	833
0	96162	51183	833
0	96189	51193	833
0	96218	51203	833
0	96247	51213	833
0	96274	51223	833
0	96301	51233	833
0	96328	51243	833
0	96355	51253	833
0	96382	51263	833
0	96409	51273	833
0	96436	51283	833
0	96463	51293	833
0	96490	51303	833
0	96517	51313	833
0	96544	51323	833
0	96571	51333	833
0	96598	51343	833
0	96625	51353	833
0	96652	51363	833
0	96679	51373	833
0	96706	51383	833
0	96733	51393	833
0	96760	51403	833
0	96786	51413	833
0	96812	51423	833
0	96838	51433	833
0	96864	51443	833
0	96890	51453	833
0	96917	51463	833
0	96943	51473	833
0	96969	51483	833
0	96995	51493	833
0	97021	51503	833
0	97047	51513	833
0	97073	51523	833
0	97099	51533	833
0	97125	51543	833
0	97151	51553	833
0	97177	51563	833
0	97203	51573	833
0	97229	51583	833
0	97255	51593	833
0	97281	51603	833
0	97307	51613	833
0	97333	51623	833
0	97362	51633	833
0	97389	51643	833
0	97416	51653	833
0	97443	51663	833
0	97470	51673	833
0	97497	51683	833
0	97524	51693	833
0	97551	51703	833
0	97578	51713	833
0	97605	51723	833
0	97635	51733	833
0	97663	51743	833
0	97691	51753	833
0	97719	51763	833
0	97747	51773	833
0	97775	51783	833
0	97803	51793	833
0	97831	51803	833
0	97859	51813	833
0	97887	51823	833
0	97917	51833	833
0	97945	51843	833
0	97973	51853	833
0	99955	52693	1663
0	99962	52693	1653
0	99968	52693	1643
0	99974	52693	1633
0	99980	52693	1623
0	99986	52693	1613
0	99992	52693	1603
0	99998	52693	1593
0	100004	52693	1583
0	100010	52693	1573
0	100016	52693	1563
0	100022	52693	1553
0	100028	52693	1543
0	100034	52693	1533
0	100040	52693	1523
0	100046	52693	1513
0	100052	52693	1503
0	100058	52693	1493
0	100064	52693	1483
0	100070	52693	1473
0	100076	52693	1463
0	100082	52693	1453
0	100088	52693	1443
0	100094	52693	1433
0	100100	52693	1423
0	100106	52693	1413
0	100112	52693	1403
0	100118	52693	1393
0	100124	52693	1383
0	100130	52693	1373
0	100136	52693	1363
0	100142	52693	1353
0	100148	52693	1343
0	100154	52693	1333
0	100160	52693	1323
0	100166	52693	1313
0	100172	52693	1303
0	100178	52693	1293
0	100184	52693	1283
0	100190	52693	1273
0	100196	52693	1263
0	100202	52693	1253
0	100208	52693	1243
0	100214	52693	1233
0	100220	52693	1223
0	100226	52693	1213
0	100232	52693	1203
0	100238	52693	1193
0	100244	52693	1183
0	100250	52693	1173
0	100256	52693	1163
0	100262	52693	1153
0	100268	52693	1143
0	100274	52693	1133
0	100280	52693	1123
0	100286	52693	1113
0	100292	52693	1103
0	100298	52693	1093
0	100304	52693	1083
0	100310	52693	1073
0	100316	52693	1063
0	100322	52693	1053
0	100328	52693	1043
0	100334	52693	1033
0	100340	52693	1023
0	100346	52693	1013
0	100352	52693	1003
0	100358	52693	993
0	100364	52693	983
0	100370	52693	973
0	100376	52693	963
0	100382	52693	953
0	100388	52693	943
0	100394	52693	933
0	100400	52693	923
0	100406	52693	913
0	100412	52693	903
0	100418	52693	893
0	100424	52693	883
0	100430	52693	873
0	100436	52693	863
0	100442	52693	853
0	100448	52693	843
0	100454	52693	833
0	100479	52703	833
0	100505	52713	833
0	100531	52723	833
0	100557	52733	833
0	100583	52743	833
0	100609	52753	833
0	100638	52763	833
0	100665	52773	833
0	100692	52783	833
0	100719	52793	833
0	100746	52803	833
0	100773	52813	833
0	100800	52823	833
0	100827	52833	833
0	100854	52843	833
0	133061	75383	833
0	133097	75393	833
0	133133	75403	833
0	133169	75413	833
0	133205	75423	833
0	133244	75433	833
0	133281	75443	833
0	133318	75453	833
0	133355	75463	833
0	133392	75473	833
0	133429	75483	833
0	133466	75493	833
0	133503	75503	833
0	133540	75513	833
0	133577	75523	833
0	133614	75533	833
0	133651	75543	833
0	133688	75553	833
0	133725	75563	833
0	133762	75573	833
0	133799	75583	833
0	133836	75593	833
0	133873	75603	833
0	133910	75613	833
0	133947	75623	833
0	133984	75633	833
0	134021	75643	833
0	134058	75653	833
0	134095	75663	833
0	134132	75673	833
0	134169	75683	833
0	134206	75693	833
0	134243	75703	833
0	134280	75713	833
0	134317	75723	833
0	134354	75733	833
0	134391	75743	833
0	134428	75753	833
0	134465	75763	833
0	134502	75773	833
0	134539	75783	833
0	134576	75793	833
0	134613	75803	833
0	134650	75813	833
0	134687	75823	833
0	134724	75833	833
0	134761	75843	833
0	134798	75853	833
0	134835	75863	833
0	134872	75873	833
0	134909	75883	833
0	134946	75893	833
0	134982	75903	833
0	135018	75913	833
0	135054	75923	833
0	135090	75933	833
0	135125	75943	833
0	135160	75953	833
0	135195	75963	833
0	135230	75973	833
0	135265	75983	833
0	135300	75993	833
0	135335	76003	833
0	135370	76013	833
0	135405	76023	833
0	135440	76033	833
0	135475	76043	833
0	135513	76053	833
0	135549	76063	833
0	135585	76073	833
0	135621	76083	833
0	135657	76093	833
0	135693	76103	833
0	135729	76113	833
0	135765	76123	833
0	135801	76133	833
0	135836	76143	833
0	135871	76153	833
0	135906	76163	833
0	135941	76173	833
0	135976	76183	833
0	136013	76193	833
0	136048	76203	833
0	136083	76213	833
0	136118	76223	833
0	136153	76233	833
0	136188	76243	833
0	136223	76253	833
0	136258	76263	833
0	136293	76273	833
0	136328	76283	833
0	136363	76293	833
0	136398	76303	833
0	136433	76313	833
0	136468	76323	833
0	136503	76333	833
0	136538	76343	833
0	136573	76353	833
0	136608	76363	833
0	136643	76373	833
0	136678	76383	833
0	136713	76393	833
0	136748	76403	833
0	136783	76413	833
0	136818	76423	833
0	136853	76433	833
0	136888	76443	833
0	136923	76453	833
0	136958	76463	833
0	136993	76473	833
0	137030	76483	833
0	137066	76493	833
0	137102	76503	833
0	137137	76513	833
0	137175	76523	833
0	137211	76533	833
0	137247	76543	833
0	137283	76553	833
0	137319	76563	833
0	137355	76573	833
0	137391	76583	833
0	137427	76593	833
0	137463	76603	833
0	137499	76613	833
0	137537	76623	833
0	137574	76633	833
0	137590	76643	833
0	137605	76653	833
0	137620	76663	833
0	137635	76673	833
0	137650	76683	833
0	137664	76693	833
0	137678	76703	833
0	137692	76713	833
0	137706	76723	833
0	137720	76733	833
0	137734	76743	833
0	137748	76753	833
0	137762	76763	833
0	137776	76773	833
0	137790	76783	833
0	137804	76793	833
0	137818	76803	833
0	137832	76813	833
0	137846	76823	833
0	137860	76833	833
0	137874	76843	833
0	137888	76853	833
0	137902	76863	833
0	137916	76873	833
0	137930	76883	833
0	137944	76893	833
0	137958	76903	833
0	137972	76913	833
0	137986	76923	833
0	138000	76933	833
0	138014	76943	833
0	138028	76953	833
0	138042	76963	833
0	138056	76973	833
0	138071	76983	833
0	138085	76993	833
0	138099	77003	833
0	138115	77013	833
0	138129	77023	833
0	138143	77033	833
0	138159	77043	833
0	138173	77053	833
0	138187	77063	833
0	138203	77073	833
0	138218	77083	833
0	138233	77093	833
0	138248	77103	833
0	138263	77113	833
0	138278	77123	833
0	138293	77133	833
0	138308	77143	833
0	138323	77153	833
0	138340	77163	833
0	138355	77173	833
0	138370	77183	833
0	138386	77193	833
0	138401	77203	833
0	138416	77213	833
0	138431	77223	833
0	138446	77233	833
0	138461	77243	833
0	138476	77253	833
0	138491	77263	833
0	138506	77273	833
0	138521	77283	833
0	138536	77293	833
0	138551	77303	833
0	138566	77313	833
0	138581	77323	833
0	138596	77333	833
0	138611	77343	833
0	138626	77353	833
0	138641	77363	833
0	138656	77373	833
0	138671	77383	833
0	138686	77393	833
0	138701	77403	833
0	138716	77413	833
0	138731	77423	833
0	138746	77433	833
0	138761	77443	833
0	138778	77453	833
0	138793	77463	833


