version 2
run General-0-20250117-13:31:09-196326
attr configname General
attr datetime 20250117-13:31:09
attr experiment General
attr inifile shaw_false.ini
attr iterationvars ""
attr iterationvarsf ""
attr measurement ""
attr network src.dtnsim
attr processid 196326
attr repetition 0
attr replication #0
attr resultdir results
attr runnumber 0
attr seedset 0
param dtnsim.central.contactsFile "\"contactPlan/Contacts.txt\""
param dtnsim.central.contactsFile_A "\"contactPlan/Contacts.txt\""
param dtnsim.central.contactsFile_B "\"contactPlan/Contacts.txt\""
param dtnsim.central.contactIdsToDelete_from_celestialA "\"1 10 14 15 17 27 37 40 42 44 54 58 61 67 81 84 95 102 104 105 114 116 120 131 138 144 147 155 163 166 169 171 177 178 179 182 184 188 190 194 196 214 217 223 251 256 260 273 278 279 280 282 285 287 296 303 306 307 308 319 333 335 338 340 347 348 350 351 355 357 361 368 380 385 387 390 397 398 399 402 404 415 419 420 421 423 440 441 443 447 451 463 464 470 473 474 475 480\""
param dtnsim.central.contactIdsToDelete_from_celestialB "\"2 7 21 26 28 34 35 38 41 47 48 52 55 59 60 64 66 69 71 79 87 91 96 99 100 103 119 121 122 135 136 137 139 140 143 148 149 154 159 161 176 180 199 201 211 215 216 228 229 231 232 237 241 244 247 248 265 267 268 270 274 281 290 305 310 313 324 326 337 339 342 345 356 358 360 367 369 375 378 383 391 392 393 394 408 416 425 428 433 435 439 445 449 452 453 454 457 458 462 465 466 471\""
param dtnsim.central.celestialA_nodes "\"1 2 3\""
param dtnsim.central.celestialB_nodes "\"4 5 6\""
param dtnsim.central.locallyfaultsAware false
param dtnsim.central.mode_two_celestial true
param dtnsim.nodesNumber 6
param dtnsim.node[1].icon "\"receiverdish\""
param dtnsim.node[2..5].icon "\"satellite\""
param dtnsim.node[6].icon "\"receiverdish\""
param dtnsim.node[*].dtn.routing "\"cgrModel350\""
param dtnsim.node[*].dtn.routingType "\"routeListType:allPaths-firstEnding,volumeAware:allContacts,extensionBlock:on,contactPlan:global\""
param dtnsim.node[1].app.enable true
param dtnsim.node[1].app.bundlesNumber "\"8000\""
param dtnsim.node[1].app.start "\"0\""
param dtnsim.node[1].app.destinationEid "\"6\""
param dtnsim.node[1].app.size "\"1500\""
param dtnsim.node[1].app.interval 10

vector 0 dtnsim.node[6].app appBundleReceivedDelayvec:vector ETV
attr interpolationmode none
attr source appBundleReceivedDelay
attr title "appBundleReceivedDelayvec, vector"
0	58976	67146	14236
0	58982	67146	14226
0	58988	67146	14216
0	58994	67146	14206
0	59000	67146	14196
0	59006	67146	14186
0	59012	67146	14176
0	59018	67146	14166
0	59024	67146	14156
0	59030	67146	14146
0	59036	67146	14136
0	59042	67146	14126
0	59048	67146	14116
0	59054	67146	14106
0	59060	67146	14096
0	59066	67146	14086
0	59072	67146	14076
0	59078	67146	14066
0	59084	67146	14056
0	59090	67146	14046
0	59096	67146	14036
0	59102	67146	14026
0	59108	67146	14016
0	59114	67146	14006
0	59120	67146	13996
0	59126	67146	13986
0	59132	67146	13976
0	59138	67146	13966
0	59144	67146	13956
0	59150	67146	13946
0	59156	67146	13936
0	59162	67146	13926
0	59168	67146	13916
0	59174	67146	13906
0	59180	67146	13896
0	59186	67146	13886
0	59192	67146	13876
0	59198	67146	13866
0	59204	67146	13856
0	59210	67146	13846
0	59216	67146	13836
0	59222	67146	13826
0	59228	67146	13816
0	59234	67146	13806
0	59240	67146	13796
0	59246	67146	13786
0	59252	67146	13776
0	59258	67146	13766
0	59264	67146	13756
0	59270	67146	13746
0	59276	67146	13736
0	59282	67146	13726
0	59288	67146	13716
0	59294	67146	13706
0	59300	67146	13696
0	59306	67146	13686
0	59312	67146	13676
0	59318	67146	13666
0	59324	67146	13656
0	59330	67146	13646
0	59336	67146	13636
0	59342	67146	13626
0	59348	67146	13616
0	59354	67146	13606
0	59360	67146	13596
0	59366	67146	13586
0	59372	67146	13576
0	59378	67146	13566
0	59384	67146	13556
0	59390	67146	13546
0	59396	67146	13536
0	59402	67146	13526
0	59408	67146	13516
0	59414	67146	13506
0	59420	67146	13496
0	59426	67146	13486
0	59432	67146	13476
0	59438	67146	13466
0	59444	67146	13456
0	59450	67146	13446
0	59456	67146	13436
0	59462	67146	13426
0	59468	67146	13416
0	59474	67146	13406
0	59480	67146	13396
0	59486	67146	13386
0	59492	67146	13376
0	59498	67146	13366
0	59504	67146	13356
0	59510	67146	13346
0	59516	67146	13336
0	59522	67146	13326
0	59528	67146	13316
0	59534	67146	13306
0	59540	67146	13296
0	59546	67146	13286
0	59552	67146	13276
0	59558	67146	13266
0	59564	67146	13256
0	59570	67146	13246
0	59576	67146	13236
0	59582	67146	13226
0	59588	67146	13216
0	59594	67146	13206
0	59600	67146	13196
0	59606	67146	13186
0	59612	67146	13176
0	59618	67146	13166
0	59624	67146	13156
0	59630	67146	13146
0	59636	67146	13136
0	59642	67146	13126
0	59648	67146	13116
0	59654	67146	13106
0	59660	67146	13096
0	59666	67146	13086
0	59672	67146	13076
0	59678	67146	13066
0	59684	67146	13056
0	59690	67146	13046
0	59696	67146	13036
0	59702	67146	13026
0	59708	67146	13016
0	59714	67146	13006
0	59720	67146	12996
0	59726	67146	12986
0	59732	67146	12976
0	59738	67146	12966
0	59744	67146	12956
0	59750	67146	12946
0	59756	67146	12936
0	59762	67146	12926
0	59768	67146	12916
0	59774	67146	12906
0	59780	67146	12896
0	59786	67146	12886
0	59792	67146	12876
0	59798	67146	12866
0	59804	67146	12856
0	59810	67146	12846
0	59816	67146	12836
0	59822	67146	12826
0	59828	67146	12816
0	59834	67146	12806
0	59840	67146	12796
0	59846	67146	12786
0	59852	67146	12776
0	59858	67146	12766
0	59864	67146	12756
0	59870	67146	12746
0	59876	67146	12736
0	59882	67146	12726
0	59888	67146	12716
0	59894	67146	12706
0	59900	67146	12696
0	59906	67146	12686
0	59912	67146	12676
0	59918	67146	12666
0	59924	67146	12656
0	59930	67146	12646
0	59936	67146	12636
0	59942	67146	12626
0	59948	67146	12616
0	59954	67146	12606
0	59960	67146	12596
0	59966	67146	12586
0	59972	67146	12576
0	59978	67146	12566
0	59984	67146	12556
0	59990	67146	12546
0	59996	67146	12536
0	60002	67146	12526
0	60008	67146	12516
0	60014	67146	12506
0	60020	67146	12496
0	60026	67146	12486
0	60032	67146	12476
0	60038	67146	12466
0	60044	67146	12456
0	60050	67146	12446
0	60056	67146	12436
0	60062	67146	12426
0	60068	67146	12416
0	60074	67146	12406
0	60080	67146	12396
0	60086	67146	12386
0	60092	67146	12376
0	60098	67146	12366
0	60104	67146	12356
0	60110	67146	12346
0	60116	67146	12336
0	60122	67146	12326
0	60128	67146	12316
0	60134	67146	12306
0	60140	67146	12296
0	60146	67146	12286
0	60152	67146	12276
0	60158	67146	12266
0	60164	67146	12256
0	60170	67146	12246
0	60176	67146	12236
0	60182	67146	12226
0	60188	67146	12216
0	60194	67146	12206
0	60200	67146	12196
0	60206	67146	12186
0	60212	67146	12176
0	60218	67146	12166
0	60224	67146	12156
0	60230	67146	12146
0	60236	67146	12136
0	60242	67146	12126
0	60248	67146	12116
0	60254	67146	12106
0	60260	67146	12096
0	60266	67146	12086
0	60272	67146	12076
0	60278	67146	12066
0	60284	67146	12056
0	60290	67146	12046
0	60296	67146	12036
0	60302	67146	12026
0	60308	67146	12016
0	60314	67146	12006
0	60320	67146	11996
0	60326	67146	11986
0	60332	67146	11976
0	60338	67146	11966
0	60344	67146	11956
0	60350	67146	11946
0	60356	67146	11936
0	60362	67146	11926
0	60368	67146	11916
0	60374	67146	11906
0	60380	67146	11896
0	60386	67146	11886
0	60392	67146	11876
0	60398	67146	11866
0	60404	67146	11856
0	60410	67146	11846
0	60416	67146	11836
0	60422	67146	11826
0	60428	67146	11816
0	60434	67146	11806
0	60440	67146	11796
0	60446	67146	11786
0	60452	67146	11776
0	60458	67146	11766
0	60464	67146	11756
0	60470	67146	11746
0	60476	67146	11736
0	60482	67146	11726
0	60488	67146	11716
0	60494	67146	11706
0	60500	67146	11696
0	60506	67146	11686
0	60512	67146	11676
0	60518	67146	11666
0	60524	67146	11656
0	60530	67146	11646
0	60536	67146	11636
0	60542	67146	11626
0	60548	67146	11616
0	60554	67146	11606
0	60560	67146	11596
0	60566	67146	11586
0	60572	67146	11576
0	60578	67146	11566
0	60584	67146	11556
0	60590	67146	11546
0	60596	67146	11536
0	60602	67146	11526
0	60608	67146	11516
0	60614	67146	11506
0	60620	67146	11496
0	60626	67146	11486
0	60632	67146	11476
0	60638	67146	11466
0	60644	67146	11456
0	60650	67146	11446
0	60656	67146	11436
0	60662	67146	11426
0	60668	67146	11416
0	60674	67146	11406
0	60680	67146	11396
0	60686	67146	11386
0	60692	67146	11376
0	60698	67146	11366
0	60704	67146	11356
0	60710	67146	11346
0	60716	67146	11336
0	60722	67146	11326
0	60728	67146	11316
0	60734	67146	11306
0	60740	67146	11296
0	60746	67146	11286
0	60752	67146	11276
0	60758	67146	11266
0	60764	67146	11256
0	60770	67146	11246
0	60776	67146	11236
0	60782	67146	11226
0	60788	67146	11216
0	60794	67146	11206
0	60800	67146	11196
0	60806	67146	11186
0	60812	67146	11176
0	60818	67146	11166
0	60824	67146	11156
0	60830	67146	11146
0	60836	67146	11136
0	60842	67146	11126
0	60848	67146	11116
0	60854	67146	11106
0	60860	67146	11096
0	60866	67146	11086
0	60872	67146	11076
0	60878	67146	11066
0	60884	67146	11056
0	60890	67146	11046
0	60896	67146	11036
0	60902	67146	11026
0	60908	67146	11016
0	60914	67146	11006
0	60920	67146	10996
0	60926	67146	10986
0	60932	67146	10976
0	60938	67146	10966
0	60944	67146	10956
0	60950	67146	10946
0	60956	67146	10936
0	60962	67146	10926
0	60968	67146	10916
0	60974	67146	10906
0	60980	67146	10896
0	60986	67146	10886
0	60992	67146	10876
0	60998	67146	10866
0	61004	67146	10856
0	61010	67146	10846
0	61016	67146	10836
0	61022	67146	10826
0	61028	67146	10816
0	61034	67146	10806
0	61040	67146	10796
0	61046	67146	10786
0	61052	67146	10776
0	61058	67146	10766
0	61064	67146	10756
0	61070	67146	10746
0	61076	67146	10736
0	61082	67146	10726
0	61088	67146	10716
0	61094	67146	10706
0	61100	67146	10696
0	61106	67146	10686
0	61112	67146	10676
0	61118	67146	10666
0	61124	67146	10656
0	61130	67146	10646
0	61136	67146	10636
0	61142	67146	10626
0	61148	67146	10616
0	61154	67146	10606
0	61160	67146	10596
0	61166	67146	10586
0	61172	67146	10576
0	61178	67146	10566
0	61184	67146	10556
0	61190	67146	10546
0	61196	67146	10536
0	61202	67146	10526
0	61208	67146	10516
0	61214	67146	10506
0	61220	67146	10496
0	61226	67146	10486
0	61232	67146	10476
0	61238	67146	10466
0	61244	67146	10456
0	61250	67146	10446
0	61256	67146	10436
0	61262	67146	10426
0	61268	67146	10416
0	61274	67146	10406
0	61280	67146	10396
0	61286	67146	10386
0	61292	67146	10376
0	61298	67146	10366
0	61304	67146	10356
0	61310	67146	10346
0	61316	67146	10336
0	61322	67146	10326
0	61328	67146	10316
0	61334	67146	10306
0	61340	67146	10296
0	61346	67146	10286
0	61352	67146	10276
0	61358	67146	10266
0	61364	67146	10256
0	61370	67146	10246
0	61376	67146	10236
0	61382	67146	10226
0	61388	67146	10216
0	61394	67146	10206
0	61400	67146	10196
0	61406	67146	10186
0	61412	67146	10176
0	61418	67146	10166
0	61424	67146	10156
0	61430	67146	10146
0	61436	67146	10136
0	61442	67146	10126
0	61448	67146	10116
0	61454	67146	10106
0	61460	67146	10096
0	61466	67146	10086
0	61472	67146	10076
0	61478	67146	10066
0	61484	67146	10056
0	61490	67146	10046
0	61496	67146	10036
0	61502	67146	10026
0	61508	67146	10016
0	61514	67146	10006
0	61520	67146	9996
0	61526	67146	9986
0	61532	67146	9976
0	61538	67146	9966
0	61544	67146	9956
0	61550	67146	9946
0	61556	67146	9936
0	61562	67146	9926
0	61568	67146	9916
0	61574	67146	9906
0	61580	67146	9896
0	61586	67146	9886
0	61592	67146	9876
0	61598	67146	9866
0	61604	67146	9856
0	61610	67146	9846
0	61616	67146	9836
0	61622	67146	9826
0	61628	67146	9816
0	61634	67146	9806
0	61640	67146	9796
0	61646	67146	9786
0	61652	67146	9776
0	61658	67146	9766
0	61664	67146	9756
0	61670	67146	9746
0	61676	67146	9736
0	61682	67146	9726
0	61688	67146	9716
0	61694	67146	9706
0	61700	67146	9696
0	61706	67146	9686
0	61712	67146	9676
0	61718	67146	9666
0	61724	67146	9656
0	61730	67146	9646
0	61736	67146	9636
0	61742	67146	9626
0	61748	67146	9616
0	61754	67146	9606
0	61760	67146	9596
0	61766	67146	9586
0	61772	67146	9576
0	61778	67146	9566
0	61784	67146	9556
0	61790	67146	9546
0	61796	67146	9536
0	61802	67146	9526
0	61808	67146	9516
0	61814	67146	9506
0	61820	67146	9496
0	61826	67146	9486
0	61832	67146	9476
0	61838	67146	9466
0	61844	67146	9456
0	61850	67146	9446
0	61856	67146	9436
0	61862	67146	9426
0	61868	67146	9416
0	61874	67146	9406
0	61880	67146	9396
0	61886	67146	9386
0	61892	67146	9376
0	61898	67146	9366
0	61904	67146	9356
0	61910	67146	9346
0	61916	67146	9336
0	61922	67146	9326
0	61928	67146	9316
0	61934	67146	9306
0	61940	67146	9296
0	61946	67146	9286
0	61952	67146	9276
0	61958	67146	9266
0	61964	67146	9256
0	61970	67146	9246
0	61976	67146	9236
0	61982	67146	9226
0	61988	67146	9216
0	61994	67146	9206
0	62000	67146	9196
0	62006	67146	9186
0	62012	67146	9176
0	62018	67146	9166
0	62024	67146	9156
0	62030	67146	9146
0	62036	67146	9136
0	62042	67146	9126
0	62048	67146	9116
0	62054	67146	9106
0	62060	67146	9096
0	62066	67146	9086
0	62072	67146	9076
0	62078	67146	9066
0	62084	67146	9056
0	62090	67146	9046
0	62096	67146	9036
0	62102	67146	9026
0	62108	67146	9016
0	62114	67146	9006
0	62120	67146	8996
0	62126	67146	8986
0	62132	67146	8976
0	62138	67146	8966
0	62144	67146	8956
0	62150	67146	8946
0	62156	67146	8936
0	62162	67146	8926
0	62168	67146	8916
0	62174	67146	8906
0	62180	67146	8896
0	62186	67146	8886
0	62192	67146	8876
0	62198	67146	8866
0	62204	67146	8856
0	62210	67146	8846
0	62216	67146	8836
0	62222	67146	8826
0	62228	67146	8816
0	62234	67146	8806
0	62240	67146	8796
0	62246	67146	8786
0	62252	67146	8776
0	62258	67146	8766
0	62264	67146	8756
0	62270	67146	8746
0	62276	67146	8736
0	62282	67146	8726
0	62288	67146	8716
0	62294	67146	8706
0	62300	67146	8696
0	62306	67146	8686
0	62312	67146	8676
0	62318	67146	8666
0	62324	67146	8656
0	62330	67146	8646
0	62336	67146	8636
0	62342	67146	8626
0	62348	67146	8616
0	62354	67146	8606
0	62360	67146	8596
0	62366	67146	8586
0	62372	67146	8576
0	62378	67146	8566
0	62384	67146	8556
0	62390	67146	8546
0	62396	67146	8536
0	62402	67146	8526
0	62408	67146	8516
0	62414	67146	8506
0	62420	67146	8496
0	62426	67146	8486
0	62432	67146	8476
0	62438	67146	8466
0	62444	67146	8456
0	62450	67146	8446
0	62456	67146	8436
0	62462	67146	8426
0	62468	67146	8416
0	62474	67146	8406
0	62480	67146	8396
0	62486	67146	8386
0	62492	67146	8376
0	62498	67146	8366
0	62504	67146	8356
0	62510	67146	8346
0	62516	67146	8336
0	62522	67146	8326
0	62528	67146	8316
0	62534	67146	8306
0	62540	67146	8296
0	62546	67146	8286
0	62552	67146	8276
0	62558	67146	8266
0	62564	67146	8256
0	62570	67146	8246
0	62576	67146	8236
0	62582	67146	8226
0	62588	67146	8216
0	62594	67146	8206
0	62600	67146	8196
0	62606	67146	8186
0	62612	67146	8176
0	62618	67146	8166
0	62624	67146	8156
0	62630	67146	8146
0	62636	67146	8136
0	62642	67146	8126
0	62648	67146	8116
0	62654	67146	8106
0	62660	67146	8096
0	62666	67146	8086
0	62672	67146	8076
0	62678	67146	8066
0	62684	67146	8056
0	62690	67146	8046
0	62696	67146	8036
0	62702	67146	8026
0	62708	67146	8016
0	62714	67146	8006
0	62720	67146	7996
0	62726	67146	7986
0	62732	67146	7976
0	62738	67146	7966
0	62744	67146	7956
0	62750	67146	7946
0	62756	67146	7936
0	62762	67146	7926
0	62768	67146	7916
0	62774	67146	7906
0	62780	67146	7896
0	62786	67146	7886
0	62792	67146	7876
0	62798	67146	7866
0	62804	67146	7856
0	62810	67146	7846
0	62816	67146	7836
0	62822	67146	7826
0	62828	67146	7816
0	62834	67146	7806
0	62840	67146	7796
0	62846	67146	7786
0	62852	67146	7776
0	62858	67146	7766
0	62864	67146	7756
0	62870	67146	7746
0	62876	67146	7736
0	62882	67146	7726
0	62888	67146	7716
0	62894	67146	7706
0	62900	67146	7696
0	62906	67146	7686
0	62912	67146	7676
0	62918	67146	7666
0	62924	67146	7656
0	62930	67146	7646
0	62936	67146	7636
0	62942	67146	7626
0	62948	67146	7616
0	62954	67146	7606
0	62960	67146	7596
0	62966	67146	7586
0	62972	67146	7576
0	62978	67146	7566
0	62984	67146	7556
0	62990	67146	7546
0	62996	67146	7536
0	63002	67146	7526
0	63008	67146	7516
0	63014	67146	7506
0	63020	67146	7496
0	63026	67146	7486
0	63032	67146	7476
0	63038	67146	7466
0	63044	67146	7456
0	63050	67146	7446
0	63056	67146	7436
0	63062	67146	7426
0	63068	67146	7416
0	63074	67146	7406
0	63080	67146	7396
0	63086	67146	7386
0	63092	67146	7376
0	63098	67146	7366
0	63104	67146	7356
0	63110	67146	7346
0	63116	67146	7336
0	63122	67146	7326
0	63128	67146	7316
0	63134	67146	7306
0	63140	67146	7296
0	63146	67146	7286
0	63152	67146	7276
0	63158	67146	7266
0	63164	67146	7256
0	63170	67146	7246
0	63176	67146	7236
0	63182	67146	7226
0	63188	67146	7216
0	63194	67146	7206
0	63200	67146	7196
0	63206	67146	7186
0	63212	67146	7176
0	63218	67146	7166
0	63224	67146	7156
0	63230	67146	7146
0	63236	67146	7136
0	63242	67146	7126
0	63248	67146	7116
0	63254	67146	7106
0	63260	67146	7096
0	63266	67146	7086
0	63272	67146	7076
0	63278	67146	7066
0	63284	67146	7056
0	63290	67146	7046
0	63296	67146	7036
0	63302	67146	7026
0	63308	67146	7016
0	63314	67146	7006
0	63320	67146	6996
0	63326	67146	6986
0	63332	67146	6976
0	63338	67146	6966
0	63344	67146	6956
0	63350	67146	6946
0	63356	67146	6936
0	63362	67146	6926
0	63368	67146	6916
0	63374	67146	6906
0	63380	67146	6896
0	63386	67146	6886
0	63392	67146	6876
0	63398	67146	6866
0	63404	67146	6856
0	63410	67146	6846
0	63416	67146	6836
0	63422	67146	6826
0	63428	67146	6816
0	63434	67146	6806
0	63440	67146	6796
0	63446	67146	6786
0	63452	67146	6776
0	63458	67146	6766
0	63464	67146	6756
0	63470	67146	6746
0	63476	67146	6736
0	63482	67146	6726
0	63488	67146	6716
0	63494	67146	6706
0	63500	67146	6696
0	63506	67146	6686
0	63512	67146	6676
0	63518	67146	6666
0	63524	67146	6656
0	63530	67146	6646
0	63536	67146	6636
0	63542	67146	6626
0	63548	67146	6616
0	63554	67146	6606
0	63560	67146	6596
0	63566	67146	6586
0	63572	67146	6576
0	63578	67146	6566
0	63584	67146	6556
0	63590	67146	6546
0	63596	67146	6536
0	63602	67146	6526
0	63608	67146	6516
0	63614	67146	6506
0	63620	67146	6496
0	63626	67146	6486
0	63632	67146	6476
0	63638	67146	6466
0	63644	67146	6456
0	63650	67146	6446
0	63656	67146	6436
0	63662	67146	6426
0	63668	67146	6416
0	63674	67146	6406
0	63680	67146	6396
0	63686	67146	6386
0	63692	67146	6376
0	63698	67146	6366
0	63704	67146	6356
0	63710	67146	6346
0	63716	67146	6336
0	63722	67146	6326
0	63728	67146	6316
0	63734	67146	6306
0	63740	67146	6296
0	63746	67146	6286
0	63752	67146	6276
0	63758	67146	6266
0	63764	67146	6256
0	63770	67146	6246
0	63776	67146	6236
0	63782	67146	6226
0	63788	67146	6216
0	63794	67146	6206
0	63800	67146	6196
0	63806	67146	6186
0	63812	67146	6176
0	63818	67146	6166
0	63824	67146	6156
0	63830	67146	6146
0	63836	67146	6136
0	63842	67146	6126
0	63848	67146	6116
0	63854	67146	6106
0	63860	67146	6096
0	63866	67146	6086
0	63872	67146	6076
0	63878	67146	6066
0	63884	67146	6056
0	63890	67146	6046
0	63896	67146	6036
0	63902	67146	6026
0	63908	67146	6016
0	63914	67146	6006
0	63920	67146	5996
0	63926	67146	5986
0	63932	67146	5976
0	63938	67146	5966
0	63944	67146	5956
0	63950	67146	5946
0	63956	67146	5936
0	63962	67146	5926
0	63968	67146	5916
0	63974	67146	5906
0	63980	67146	5896
0	63986	67146	5886
0	63992	67146	5876
0	63998	67146	5866
0	64004	67146	5856
0	64010	67146	5846
0	64016	67146	5836
0	64022	67146	5826
0	64028	67146	5816
0	64034	67146	5806
0	64040	67146	5796
0	64046	67146	5786
0	64052	67146	5776
0	64058	67146	5766
0	64064	67146	5756
0	64070	67146	5746
0	64076	67146	5736
0	64082	67146	5726
0	64088	67146	5716
0	64094	67146	5706
0	64100	67146	5696
0	64106	67146	5686
0	64112	67146	5676
0	64118	67146	5666
0	64124	67146	5656
0	64130	67146	5646
0	64136	67146	5636
0	64142	67146	5626
0	64148	67146	5616
0	64154	67146	5606
0	64160	67146	5596
0	64166	67146	5586
0	64172	67146	5576
0	64178	67146	5566
0	64184	67146	5556
0	64190	67146	5546
0	64196	67146	5536
0	64202	67146	5526
0	64208	67146	5516
0	64214	67146	5506
0	64220	67146	5496
0	64226	67146	5486
0	64232	67146	5476
0	64238	67146	5466
0	64244	67146	5456
0	64250	67146	5446
0	64256	67146	5436
0	64262	67146	5426
0	64268	67146	5416
0	64274	67146	5406
0	64280	67146	5396
0	64286	67146	5386
0	64292	67146	5376
0	64298	67146	5366
0	64304	67146	5356
0	64310	67146	5346
0	64316	67146	5336
0	64322	67146	5326
0	64328	67146	5316
0	64334	67146	5306
0	64340	67146	5296
0	64346	67146	5286
0	64352	67146	5276
0	64358	67146	5266
0	64364	67146	5256
0	64370	67146	5246
0	64376	67146	5236
0	64382	67146	5226
0	64388	67146	5216
0	64394	67146	5206
0	64400	67146	5196
0	64406	67146	5186
0	64412	67146	5176
0	64418	67146	5166
0	64424	67146	5156
0	64430	67146	5146
0	64436	67146	5136
0	64442	67146	5126
0	64448	67146	5116
0	64454	67146	5106
0	64460	67146	5096
0	64466	67146	5086
0	64472	67146	5076
0	64478	67146	5066
0	64484	67146	5056
0	64490	67146	5046
0	64496	67146	5036
0	64502	67146	5026
0	64508	67146	5016
0	64514	67146	5006
0	64520	67146	4996
0	64526	67146	4986
0	64532	67146	4976
0	64538	67146	4966
0	64544	67146	4956
0	64550	67146	4946
0	64556	67146	4936
0	64562	67146	4926
0	64568	67146	4916
0	64574	67146	4906
0	64580	67146	4896
0	64586	67146	4886
0	64592	67146	4876
0	64598	67146	4866
0	64604	67146	4856
0	64610	67146	4846
0	64616	67146	4836
0	64622	67146	4826
0	64628	67146	4816
0	64634	67146	4806
0	64640	67146	4796
0	64646	67146	4786
0	64652	67146	4776
0	64658	67146	4766
0	64664	67146	4756
0	64670	67146	4746
0	64676	67146	4736
0	64682	67146	4726
0	64688	67146	4716
0	64694	67146	4706
0	64700	67146	4696
0	64706	67146	4686
0	64712	67146	4676
0	64718	67146	4666
0	64724	67146	4656
0	64730	67146	4646
0	64736	67146	4636
0	64742	67146	4626
0	64748	67146	4616
0	64754	67146	4606
0	64760	67146	4596
0	64766	67146	4586
0	64772	67146	4576
0	64778	67146	4566
0	64784	67146	4556
0	64790	67146	4546
0	64796	67146	4536
0	64802	67146	4526
0	64808	67146	4516
0	64814	67146	4506
0	64820	67146	4496
0	64826	67146	4486
0	64832	67146	4476
0	64838	67146	4466
0	64844	67146	4456
0	64850	67146	4446
0	64856	67146	4436
0	64862	67146	4426
0	64868	67146	4416
0	64874	67146	4406
0	64880	67146	4396
0	64886	67146	4386
0	64892	67146	4376
0	64898	67146	4366
0	64904	67146	4356
0	64910	67146	4346
0	64916	67146	4336
0	64922	67146	4326
0	64928	67146	4316
0	64934	67146	4306
0	64940	67146	4296
0	64946	67146	4286
0	64952	67146	4276
0	64958	67146	4266
0	64964	67146	4256
0	64970	67146	4246
0	64976	67146	4236
0	64982	67146	4226
0	64988	67146	4216
0	64994	67146	4206
0	65000	67146	4196
0	65006	67146	4186
0	65012	67146	4176
0	65018	67146	4166
0	65024	67146	4156
0	65030	67146	4146
0	65036	67146	4136
0	65042	67146	4126
0	65048	67146	4116
0	65054	67146	4106
0	65060	67146	4096
0	65066	67146	4086
0	65072	67146	4076
0	65078	67146	4066
0	65084	67146	4056
0	65090	67146	4046
0	65096	67146	4036
0	65102	67146	4026
0	65108	67146	4016
0	65114	67146	4006
0	65120	67146	3996
0	65126	67146	3986
0	65132	67146	3976
0	65138	67146	3966
0	65144	67146	3956
0	65150	67146	3946
0	65156	67146	3936
0	65162	67146	3926
0	65168	67146	3916
0	65174	67146	3906
0	65180	67146	3896
0	65186	67146	3886
0	65192	67146	3876
0	65198	67146	3866
0	65204	67146	3856
0	65210	67146	3846
0	65216	67146	3836
0	65222	67146	3826
0	65228	67146	3816
0	65234	67146	3806
0	65240	67146	3796
0	65246	67146	3786
0	65252	67146	3776
0	65258	67146	3766
0	65264	67146	3756
0	65270	67146	3746
0	65276	67146	3736
0	65282	67146	3726
0	65288	67146	3716
0	65294	67146	3706
0	65300	67146	3696
0	65306	67146	3686
0	65312	67146	3676
0	65318	67146	3666
0	65324	67146	3656
0	65330	67146	3646
0	65336	67146	3636
0	65342	67146	3626
0	65348	67146	3616
0	65354	67146	3606
0	65360	67146	3596
0	65366	67146	3586
0	65372	67146	3576
0	65378	67146	3566
0	65384	67146	3556
0	65390	67146	3546
0	65396	67146	3536
0	65402	67146	3526
0	65408	67146	3516
0	65414	67146	3506
0	65420	67146	3496
0	65426	67146	3486
0	65432	67146	3476
0	65438	67146	3466
0	65444	67146	3456
0	65450	67146	3446
0	65456	67146	3436
0	65462	67146	3426
0	65468	67146	3416
0	65474	67146	3406
0	65480	67146	3396
0	65486	67146	3386
0	65492	67146	3376
0	65498	67146	3366
0	65504	67146	3356
0	65510	67146	3346
0	65516	67146	3336
0	65522	67146	3326
0	65528	67146	3316
0	65534	67146	3306
0	65540	67146	3296
0	65546	67146	3286
0	65552	67146	3276
0	65558	67146	3266
0	65564	67146	3256
0	65570	67146	3246
0	65576	67146	3236
0	65582	67146	3226
0	65588	67146	3216
0	65594	67146	3206
0	65600	67146	3196
0	65606	67146	3186
0	65612	67146	3176
0	65618	67146	3166
0	65624	67146	3156
0	65630	67146	3146
0	65636	67146	3136
0	65642	67146	3126
0	65648	67146	3116
0	65654	67146	3106
0	65660	67146	3096
0	65666	67146	3086
0	65672	67146	3076
0	65678	67146	3066
0	65684	67146	3056
0	65690	67146	3046
0	65696	67146	3036
0	65702	67146	3026
0	65708	67146	3016
0	65714	67146	3006
0	65720	67146	2996
0	69829	71826	476
0	69860	71836	476
0	69891	71846	476
0	69922	71856	476
0	69953	71866	476
0	69984	71876	476
0	70015	71886	476
0	70046	71896	476
0	70077	71906	476
0	70108	71916	476
0	70139	71926	476
0	70170	71936	476
0	70201	71946	476
0	70232	71956	476
0	70263	71966	476
0	70296	71976	476
0	70327	71986	476
0	70358	71996	476
0	70389	72006	476
0	70420	72016	476
0	70451	72026	476
0	70482	72036	476
0	70513	72046	476
0	70546	72056	476
0	70578	72066	476
0	70610	72076	476
0	70642	72086	476
0	70674	72096	476
0	70708	72106	476
0	70741	72116	476
0	70776	72126	476
0	70812	72136	476
0	70847	72146	476
0	70882	72156	476
0	70917	72166	476
0	70954	72176	476
0	70992	72186	476
0	71031	72196	476
0	71074	72206	476
0	71114	72216	476
0	71152	72226	476
0	71192	72236	476
0	71230	72246	476
0	71273	72256	476
0	71312	72266	476
0	71353	72276	476
0	71396	72286	476
0	71437	72296	476
0	71478	72306	476
0	71519	72316	476
0	71562	72326	476
0	71604	72336	476
0	71646	72346	476
0	71690	72356	476
0	71732	72366	476
0	71774	72376	476
0	71816	72386	476
0	71862	72396	476
0	71905	72406	476
0	71948	72416	476
0	71991	72426	476
0	72034	72436	476
0	72077	72446	476
0	72120	72456	476
0	72167	72466	476
0	72212	72476	476
0	72257	72486	476
0	72302	72496	476
0	72347	72506	476
0	72392	72516	476
0	72437	72526	476
0	72482	72536	476
0	72531	72546	476
0	72578	72556	476
0	72625	72566	476
0	72674	72576	476
0	72722	72586	476
0	72770	72596	476
0	72818	72606	476
0	72866	72616	476
0	72914	72626	476
0	72962	72636	476
0	73013	72646	476
0	73065	72656	476
0	73115	72666	476
0	73165	72676	476
0	73215	72686	476
0	73265	72696	476
0	73315	72706	476
0	73367	72716	476
0	73418	72726	476
0	73469	72736	476
0	73522	72746	476
0	73573	72756	476
0	73624	72766	476
0	73675	72776	476
0	73726	72786	476
0	73779	72796	476
0	73833	72806	476
0	73889	72816	476
0	73944	72826	476
0	73998	72836	476
0	74052	72846	476
0	74106	72856	476
0	74160	72866	476
0	74214	72876	476
0	74270	72886	476
0	74325	72896	476
0	74382	72906	476
0	74437	72916	476
0	74492	72926	476
0	74547	72936	476
0	74602	72946	476
0	74657	72956	476
0	74712	72966	476
0	74767	72976	476
0	74822	72986	476
0	74877	72996	476
0	74932	73006	476
0	74987	73016	476
0	75044	73026	476
0	75100	73036	476
0	75158	73046	476
0	75215	73056	476
0	75272	73066	476
0	75329	73076	476
0	75390	73086	476
0	75449	73096	476
0	75510	73106	476
0	75572	73116	476
0	75634	73126	476
0	75695	73136	476
0	75756	73146	476
0	75819	73156	476
0	75881	73166	476
0	75943	73176	476
0	76008	73186	476
0	76071	73196	476
0	76132	73206	476
0	76195	73216	476
0	76257	73226	476
0	76319	73236	476
0	76381	73246	476
0	76444	73256	476
0	76506	73266	476
0	76568	73276	476
0	76630	73286	476
0	76692	73296	476
0	76739	73306	476
0	76786	73316	476
0	76833	73326	476
0	76882	73336	476
0	76932	73346	476
0	76980	73356	476
0	77028	73366	476
0	77076	73376	476
0	77124	73386	476
0	77172	73396	476
0	77220	73406	476
0	77268	73416	476
0	77316	73426	476
0	77364	73436	476
0	77412	73446	476
0	77462	73456	476
0	77510	73466	476
0	77558	73476	476
0	77606	73486	476
0	77654	73496	476
0	77704	73506	476
0	77752	73516	476
0	77801	73526	476
0	77850	73536	476
0	77899	73546	476
0	77948	73556	476
0	77997	73566	476
0	78048	73576	476
0	78099	73586	476
0	78150	73596	476
0	78200	73606	476
0	78250	73616	476
0	78302	73626	476
0	78353	73636	476
0	78404	73646	476
0	78455	73656	476
0	92718	78496	476
0	92775	78506	476
0	92832	78516	476
0	92893	78526	476
0	92949	78536	476
0	93005	78546	476
0	93061	78556	476
0	93117	78566	476
0	93172	78576	476
0	93227	78586	476
0	93283	78596	476
0	93340	78606	476
0	93397	78616	476
0	93452	78626	476
0	93505	78636	476
0	93562	78646	476
0	93616	78656	476
0	95227	79306	1116
0	95248	79306	1106
0	95254	79306	1096
0	95260	79306	1086
0	95266	79306	1076
0	95272	79306	1066
0	95278	79306	1056
0	95284	79306	1046
0	95290	79306	1036
0	95296	79306	1026
0	95302	79306	1016
0	95308	79306	1006
0	95314	79306	996
0	95320	79306	986
0	95326	79306	976
0	95332	79306	966
0	95338	79306	956
0	95344	79306	946
0	95350	79306	936
0	95356	79306	926
0	95362	79306	916
0	95368	79306	906
0	95374	79306	896
0	95380	79306	886
0	95386	79306	876
0	95392	79306	866
0	95398	79306	856
0	95404	79306	846
0	95410	79306	836
0	95416	79306	826
0	95422	79306	816
0	95428	79306	806
0	95434	79306	796
0	95440	79306	786
0	95446	79306	776
0	95452	79306	766
0	95458	79306	756
0	95464	79306	746
0	95470	79306	736
0	95476	79306	726
0	95482	79306	716
0	95488	79306	706
0	95494	79306	696
0	95500	79306	686
0	95506	79306	676
0	95512	79306	666
0	95518	79306	656
0	95524	79306	646
0	95530	79306	636
0	95536	79306	626
0	95542	79306	616
0	95548	79306	606
0	95554	79306	596
0	95560	79306	586
0	95566	79306	576
0	95572	79306	566
0	95578	79306	556
0	95584	79306	546
0	95590	79306	536
0	95596	79306	526
0	95602	79306	516
0	95608	79306	506
0	95614	79306	496
0	95620	79306	486
0	95626	79306	476
0	95647	79316	476
0	95681	79326	476
0	95715	79336	476
0	95752	79346	476
0	95786	79356	476
0	95820	79366	476
0	95856	79376	476
0	95890	79386	476
0	95924	79396	476
0	95958	79406	476
0	95992	79416	476
0	96026	79426	476

