version 2
run General-0-20250117-13:45:48-196798
attr configname General
attr datetime 20250117-13:45:48
attr experiment General
attr inifile shaw_exist.ini
attr iterationvars ""
attr iterationvarsf ""
attr measurement ""
attr network src.dtnsim
attr processid 196798
attr repetition 0
attr replication #0
attr resultdir results
attr runnumber 0
attr seedset 0
param dtnsim.central.contactsFile "\"contactPlan/Contacts.txt\""
param dtnsim.central.contactsFile_A "\"contactPlan/Contacts_A.txt\""
param dtnsim.central.contactsFile_B "\"contactPlan/Contacts_B.txt\""
param dtnsim.central.contactIdsToDelete_from_celestialA "\"1 10 14 15 17 27 37 40 42 44 54 58 61 67 81 84 95 102 104 105 114 116 120 131 138 144 147 155 163 166 169 171 177 178 179 182 184 188 190 194 196 214 217 223 251 256 260 273 278 279 280 282 285 287 296 303 306 307 308 319 333 335 338 340 347 348 350 351 355 357 361 368 380 385 387 390 397 398 399 402 404 415 419 420 421 423 440 441 443 447 451 463 464 470 473 474 475 480\""
param dtnsim.central.contactIdsToDelete_from_celestialB "\"2 7 21 26 28 34 35 38 41 47 48 52 55 59 60 64 66 69 71 79 87 91 96 99 100 103 119 121 122 135 136 137 139 140 143 148 149 154 159 161 176 180 199 201 211 215 216 228 229 231 232 237 241 244 247 248 265 267 268 270 274 281 290 305 310 313 324 326 337 339 342 345 356 358 360 367 369 375 378 383 391 392 393 394 408 416 425 428 433 435 439 445 449 452 453 454 457 458 462 465 466 471\""
param dtnsim.central.celestialA_nodes "\"1 2 3\""
param dtnsim.central.celestialB_nodes "\"4 5 6\""
param dtnsim.central.locallyfaultsAware true
param dtnsim.central.mode_two_celestial true
param dtnsim.nodesNumber 6
param dtnsim.node[1].icon "\"receiverdish\""
param dtnsim.node[2..5].icon "\"satellite\""
param dtnsim.node[6].icon "\"receiverdish\""
param dtnsim.node[*].dtn.routing "\"cgrModel350\""
param dtnsim.node[*].dtn.routingType "\"routeListType:allPaths-firstEnding,volumeAware:allContacts,extensionBlock:on,contactPlan:global\""
param dtnsim.node[1].app.enable true
param dtnsim.node[1].app.bundlesNumber "\"8000\""
param dtnsim.node[1].app.start "\"0\""
param dtnsim.node[1].app.destinationEid "\"6\""
param dtnsim.node[1].app.size "\"1500\""
param dtnsim.node[1].app.interval 10

vector 0 dtnsim.node[6].app appBundleReceivedDelayvec:vector ETV
attr interpolationmode none
attr source appBundleReceivedDelay
attr title "appBundleReceivedDelayvec, vector"
0	89124	61836	61836
0	89130	61836	61826
0	89136	61836	61816
0	89142	61836	61806
0	89148	61836	61796
0	89154	61836	61786
0	89160	61836	61776
0	89166	61836	61766
0	89172	61836	61756
0	89178	61836	61746
0	89184	61836	61736
0	89190	61836	61726
0	89196	61836	61716
0	89202	61836	61706
0	89208	61836	61696
0	89214	61836	61686
0	89220	61836	61676
0	89226	61836	61666
0	89232	61836	61656
0	89238	61836	61646
0	89244	61836	61636
0	89250	61836	61626
0	89256	61836	61616
0	89262	61836	61606
0	89268	61836	61596
0	89274	61836	61586
0	89280	61836	61576
0	89286	61836	61566
0	89292	61836	61556
0	89298	61836	61546
0	89304	61836	61536
0	89310	61836	61526
0	89316	61836	61516
0	89322	61836	61506
0	89328	61836	61496
0	89334	61836	61486
0	89340	61836	61476
0	89346	61836	61466
0	89352	61836	61456
0	89358	61836	61446
0	89364	61836	61436
0	89370	61836	61426
0	89376	61836	61416
0	89382	61836	61406
0	89388	61836	61396
0	89394	61836	61386
0	89400	61836	61376
0	89406	61836	61366
0	89412	61836	61356
0	89418	61836	61346
0	89424	61836	61336
0	89430	61836	61326
0	89436	61836	61316
0	89442	61836	61306
0	89448	61836	61296
0	89454	61836	61286
0	89460	61836	61276
0	89466	61836	61266
0	89472	61836	61256
0	89478	61836	61246
0	89484	61836	61236
0	89490	61836	61226
0	89496	61836	61216
0	89502	61836	61206
0	89508	61836	61196
0	89514	61836	61186
0	89520	61836	61176
0	89526	61836	61166
0	89532	61836	61156
0	89538	61836	61146
0	89544	61836	61136
0	89550	61836	61126
0	89556	61836	61116
0	89562	61836	61106
0	89568	61836	61096
0	89574	61836	61086
0	89580	61836	61076
0	89586	61836	61066
0	89592	61836	61056
0	89598	61836	61046
0	89604	61836	61036
0	89610	61836	61026
0	89616	61836	61016
0	89622	61836	61006
0	89628	61836	60996
0	89634	61836	60986
0	89640	61836	60976
0	89646	61836	60966
0	89652	61836	60956
0	89658	61836	60946
0	89664	61836	60936
0	89670	61836	60926
0	89676	61836	60916
0	89682	61836	60906
0	89688	61836	60896
0	89694	61836	60886
0	89700	61836	60876
0	89706	61836	60866
0	89712	61836	60856
0	89718	61836	60846
0	89724	61836	60836
0	89730	61836	60826
0	89736	61836	60816
0	89742	61836	60806
0	89748	61836	60796
0	89754	61836	60786
0	89760	61836	60776
0	89766	61836	60766
0	89772	61836	60756
0	89778	61836	60746
0	89784	61836	60736
0	89790	61836	60726
0	89796	61836	60716
0	89802	61836	60706
0	89808	61836	60696
0	89814	61836	60686
0	89820	61836	60676
0	89826	61836	60666
0	89832	61836	60656
0	89838	61836	60646
0	89844	61836	60636
0	89850	61836	60626
0	89856	61836	60616
0	89862	61836	60606
0	89868	61836	60596
0	89874	61836	60586
0	89880	61836	60576
0	89886	61836	60566
0	89892	61836	60556
0	89898	61836	60546
0	89904	61836	60536
0	89910	61836	60526
0	89916	61836	60516
0	89922	61836	60506
0	89928	61836	60496
0	89934	61836	60486
0	89940	61836	60476
0	89946	61836	60466
0	89952	61836	60456
0	89958	61836	60446
0	89964	61836	60436
0	89970	61836	60426
0	89976	61836	60416
0	89982	61836	60406
0	89988	61836	60396
0	89994	61836	60386
0	90000	61836	60376
0	90006	61836	60366
0	90012	61836	60356
0	90018	61836	60346
0	90024	61836	60336
0	90030	61836	60326
0	90036	61836	60316
0	90042	61836	60306
0	90048	61836	60296
0	90054	61836	60286
0	90060	61836	60276
0	90066	61836	60266
0	90072	61836	60256
0	90078	61836	60246
0	90084	61836	60236
0	90090	61836	60226
0	90096	61836	60216
0	90102	61836	60206
0	90108	61836	60196
0	90114	61836	60186
0	90120	61836	60176
0	90126	61836	60166
0	90132	61836	60156
0	90138	61836	60146
0	90144	61836	60136
0	90150	61836	60126
0	90156	61836	60116
0	90162	61836	60106
0	90168	61836	60096
0	90174	61836	60086
0	90180	61836	60076
0	90186	61836	60066
0	90192	61836	60056
0	90198	61836	60046
0	90204	61836	60036
0	90210	61836	60026
0	90216	61836	60016
0	90222	61836	60006
0	90228	61836	59996
0	90234	61836	59986
0	90240	61836	59976
0	90246	61836	59966
0	90252	61836	59956
0	90258	61836	59946
0	90264	61836	59936
0	90270	61836	59926
0	90276	61836	59916
0	90282	61836	59906
0	90288	61836	59896
0	90294	61836	59886
0	90300	61836	59876
0	90306	61836	59866
0	90312	61836	59856
0	90318	61836	59846
0	90324	61836	59836
0	90330	61836	59826
0	90336	61836	59816
0	90342	61836	59806
0	90348	61836	59796
0	90354	61836	59786
0	90360	61836	59776
0	90366	61836	59766
0	90372	61836	59756
0	90378	61836	59746
0	90384	61836	59736
0	90390	61836	59726
0	90396	61836	59716
0	90402	61836	59706
0	90408	61836	59696
0	90414	61836	59686
0	90420	61836	59676
0	90426	61836	59666
0	90432	61836	59656
0	90438	61836	59646
0	90444	61836	59636
0	90450	61836	59626
0	90456	61836	59616
0	90462	61836	59606
0	90468	61836	59596
0	90474	61836	59586
0	90480	61836	59576
0	90486	61836	59566
0	90492	61836	59556
0	90498	61836	59546
0	90504	61836	59536
0	90510	61836	59526
0	90516	61836	59516
0	90522	61836	59506
0	90528	61836	59496
0	90534	61836	59486
0	90540	61836	59476
0	90546	61836	59466
0	90552	61836	59456
0	90558	61836	59446
0	90564	61836	59436
0	90570	61836	59426
0	90576	61836	59416
0	90582	61836	59406
0	90588	61836	59396
0	90594	61836	59386
0	90600	61836	59376
0	90606	61836	59366
0	90612	61836	59356
0	90618	61836	59346
0	90624	61836	59336
0	90630	61836	59326
0	90636	61836	59316
0	90642	61836	59306
0	90648	61836	59296
0	90654	61836	59286
0	90660	61836	59276
0	90666	61836	59266
0	90672	61836	59256
0	90678	61836	59246
0	90684	61836	59236
0	90690	61836	59226
0	90696	61836	59216
0	90702	61836	59206
0	90708	61836	59196
0	90714	61836	59186
0	90720	61836	59176
0	90726	61836	59166
0	90732	61836	59156
0	90738	61836	59146
0	90744	61836	59136
0	90750	61836	59126
0	90756	61836	59116
0	90762	61836	59106
0	90768	61836	59096
0	90774	61836	59086
0	90780	61836	59076
0	90786	61836	59066
0	90792	61836	59056
0	90798	61836	59046
0	90804	61836	59036
0	90810	61836	59026
0	90816	61836	59016
0	90822	61836	59006
0	90828	61836	58996
0	90834	61836	58986
0	90840	61836	58976
0	90846	61836	58966
0	90852	61836	58956
0	90858	61836	58946
0	90864	61836	58936
0	90870	61836	58926
0	90876	61836	58916
0	90882	61836	58906
0	90888	61836	58896
0	90894	61836	58886
0	90900	61836	58876
0	90906	61836	58866
0	90912	61836	58856
0	90918	61836	58846
0	90924	61836	58836
0	90930	61836	58826
0	90936	61836	58816
0	90942	61836	58806
0	90948	61836	58796
0	90954	61836	58786
0	90960	61836	58776
0	90966	61836	58766
0	90972	61836	58756
0	90978	61836	58746
0	90984	61836	58736
0	90990	61836	58726
0	90996	61836	58716
0	91002	61836	58706
0	91008	61836	58696
0	91014	61836	58686
0	91020	61836	58676
0	91026	61836	58666
0	91032	61836	58656
0	91038	61836	58646
0	91044	61836	58636
0	91050	61836	58626
0	91056	61836	58616
0	91062	61836	58606
0	91068	61836	58596
0	91074	61836	58586
0	91080	61836	58576
0	91086	61836	58566
0	91092	61836	58556
0	91098	61836	58546
0	91104	61836	58536
0	91110	61836	58526
0	91116	61836	58516
0	91122	61836	58506
0	91128	61836	58496
0	91134	61836	58486
0	91140	61836	58476
0	91146	61836	58466
0	91152	61836	58456
0	91158	61836	58446
0	91164	61836	58436
0	91170	61836	58426
0	91176	61836	58416
0	91182	61836	58406
0	91188	61836	58396
0	91194	61836	58386
0	91200	61836	58376
0	91206	61836	58366
0	91212	61836	58356
0	91218	61836	58346
0	91224	61836	58336
0	91230	61836	58326
0	91236	61836	58316
0	91242	61836	58306
0	91248	61836	58296
0	91254	61836	58286
0	91260	61836	58276
0	91266	61836	58266
0	91272	61836	58256
0	91278	61836	58246
0	91284	61836	58236
0	91290	61836	58226
0	91296	61836	58216
0	91302	61836	58206
0	91308	61836	58196
0	91314	61836	58186
0	91320	61836	58176
0	91326	61836	58166
0	91332	61836	58156
0	91338	61836	58146
0	91344	61836	58136
0	91350	61836	58126
0	91356	61836	58116
0	91362	61836	58106
0	91368	61836	58096
0	91374	61836	58086
0	91380	61836	58076
0	91386	61836	58066
0	91392	61836	58056
0	91398	61836	58046
0	91404	61836	58036
0	91410	61836	58026
0	91416	61836	58016
0	91422	61836	58006
0	91428	61836	57996
0	91434	61836	57986
0	91440	61836	57976
0	91446	61836	57966
0	91452	61836	57956
0	91458	61836	57946
0	91464	61836	57936
0	91470	61836	57926
0	91476	61836	57916
0	91482	61836	57906
0	91488	61836	57896
0	91494	61836	57886
0	91500	61836	57876
0	91506	61836	57866
0	91512	61836	57856
0	91518	61836	57846
0	91524	61836	57836
0	91530	61836	57826
0	91536	61836	57816
0	91542	61836	57806
0	91548	61836	57796
0	91554	61836	57786
0	91560	61836	57776
0	91566	61836	57766
0	91572	61836	57756
0	91578	61836	57746
0	91584	61836	57736
0	91590	61836	57726
0	91596	61836	57716
0	91602	61836	57706
0	91608	61836	57696
0	91614	61836	57686
0	91620	61836	57676
0	91626	61836	57666
0	91632	61836	57656
0	91638	61836	57646
0	91644	61836	57636
0	91650	61836	57626
0	91656	61836	57616
0	91662	61836	57606
0	91668	61836	57596
0	91674	61836	57586
0	91680	61836	57576
0	91686	61836	57566
0	91692	61836	57556
0	91698	61836	57546
0	91704	61836	57536
0	91710	61836	57526
0	91716	61836	57516
0	91722	61836	57506
0	91728	61836	57496
0	91734	61836	57486
0	91740	61836	57476
0	91746	61836	57466
0	91752	61836	57456
0	91758	61836	57446
0	91764	61836	57436
0	91770	61836	57426
0	91776	61836	57416
0	91782	61836	57406
0	91788	61836	57396
0	91794	61836	57386
0	91800	61836	57376
0	91806	61836	57366
0	91812	61836	57356
0	91818	61836	57346
0	91824	61836	57336
0	91830	61836	57326
0	91836	61836	57316
0	91842	61836	57306
0	91848	61836	57296
0	91854	61836	57286
0	91860	61836	57276
0	91866	61836	57266
0	91872	61836	57256
0	91878	61836	57246
0	91884	61836	57236
0	91890	61836	57226
0	91896	61836	57216
0	91902	61836	57206
0	91908	61836	57196
0	91914	61836	57186
0	91920	61836	57176
0	91926	61836	57166
0	91932	61836	57156
0	91938	61836	57146
0	91944	61836	57136
0	91950	61836	57126
0	91956	61836	57116
0	91962	61836	57106
0	91968	61836	57096
0	91974	61836	57086
0	91980	61836	57076
0	91986	61836	57066
0	91992	61836	57056
0	91998	61836	57046
0	92004	61836	57036
0	92010	61836	57026
0	92016	61836	57016
0	92022	61836	57006
0	92028	61836	56996
0	92034	61836	56986
0	92040	61836	56976
0	92046	61836	56966
0	92052	61836	56956
0	92058	61836	56946
0	92064	61836	56936
0	92070	61836	56926
0	92076	61836	56916
0	92082	61836	56906
0	92088	61836	56896
0	92094	61836	56886
0	92100	61836	56876
0	92106	61836	56866
0	92112	61836	56856
0	92118	61836	56846
0	92124	61836	56836
0	92130	61836	56826
0	92136	61836	56816
0	92142	61836	56806
0	92148	61836	56796
0	92154	61836	56786
0	92160	61836	56776
0	92166	61836	56766
0	92172	61836	56756
0	92178	61836	56746
0	92184	61836	56736
0	92190	61836	56726
0	92196	61836	56716
0	92202	61836	56706
0	92208	61836	56696
0	92214	61836	56686
0	92220	61836	56676
0	92226	61836	56666
0	92232	61836	56656
0	92238	61836	56646
0	92244	61836	56636
0	92250	61836	56626
0	92256	61836	56616
0	92262	61836	56606
0	92268	61836	56596
0	92274	61836	56586
0	92280	61836	56576
0	92286	61836	56566
0	92292	61836	56556
0	92298	61836	56546
0	92304	61836	56536
0	92310	61836	56526
0	92316	61836	56516
0	92322	61836	56506
0	92328	61836	56496
0	92334	61836	56486
0	92340	61836	56476
0	92346	61836	56466
0	92352	61836	56456
0	92358	61836	56446
0	92364	61836	56436
0	92370	61836	56426
0	92376	61836	56416
0	92382	61836	56406
0	92388	61836	56396
0	92394	61836	56386
0	92400	61836	56376
0	92406	61836	56366
0	92412	61836	56356
0	92418	61836	56346
0	92424	61836	56336
0	92430	61836	56326
0	92436	61836	56316
0	92442	61836	56306
0	92448	61836	56296
0	92454	61836	56286
0	92460	61836	56276
0	92466	61836	56266
0	92472	61836	56256
0	92478	61836	56246
0	92484	61836	56236
0	92490	61836	56226
0	92496	61836	56216
0	92502	61836	56206
0	92508	61836	56196
0	92514	61836	56186
0	92520	61836	56176
0	92526	61836	56166
0	92532	61836	56156
0	92538	61836	56146
0	92544	61836	56136
0	92550	61836	56126
0	92556	61836	56116
0	92562	61836	56106
0	92568	61836	56096
0	92574	61836	56086
0	92580	61836	56076
0	92586	61836	56066
0	92592	61836	56056
0	92598	61836	56046
0	92604	61836	56036
0	92610	61836	56026
0	92616	61836	56016
0	92622	61836	56006
0	92628	61836	55996
0	92634	61836	55986
0	92640	61836	55976
0	92646	61836	55966
0	92652	61836	55956
0	92658	61836	55946
0	92664	61836	55936
0	92670	61836	55926
0	92676	61836	55916
0	92682	61836	55906
0	92688	61836	55896
0	92694	61836	55886
0	92700	61836	55876
0	92706	61836	55866
0	92712	61836	55856
0	92718	61836	55846
0	92724	61836	55836
0	92730	61836	55826
0	92736	61836	55816
0	92742	61836	55806
0	92748	61836	55796
0	92754	61836	55786
0	92760	61836	55776
0	92766	61836	55766
0	92772	61836	55756
0	92778	61836	55746
0	92784	61836	55736
0	92790	61836	55726
0	92796	61836	55716
0	92802	61836	55706
0	92808	61836	55696
0	92814	61836	55686
0	92820	61836	55676
0	92826	61836	55666
0	92832	61836	55656
0	92838	61836	55646
0	92844	61836	55636
0	92850	61836	55626
0	92856	61836	55616
0	92862	61836	55606
0	92868	61836	55596
0	92874	61836	55586
0	92880	61836	55576
0	92886	61836	55566
0	92892	61836	55556
0	92898	61836	55546
0	92904	61836	55536
0	92910	61836	55526
0	92916	61836	55516
0	92922	61836	55506
0	92928	61836	55496
0	92934	61836	55486
0	92940	61836	55476
0	92946	61836	55466
0	92952	61836	55456
0	92958	61836	55446
0	92964	61836	55436
0	92970	61836	55426
0	92976	61836	55416
0	92982	61836	55406
0	92988	61836	55396
0	92994	61836	55386
0	93000	61836	55376
0	93006	61836	55366
0	93012	61836	55356
0	93018	61836	55346
0	93024	61836	55336
0	93030	61836	55326
0	93036	61836	55316
0	93042	61836	55306
0	93048	61836	55296
0	93054	61836	55286
0	93060	61836	55276
0	93066	61836	55266
0	93072	61836	55256
0	93078	61836	55246
0	93084	61836	55236
0	93090	61836	55226
0	93096	61836	55216
0	93102	61836	55206
0	93108	61836	55196
0	93114	61836	55186
0	93120	61836	55176
0	93126	61836	55166
0	93132	61836	55156
0	93138	61836	55146
0	93144	61836	55136
0	93150	61836	55126
0	93156	61836	55116
0	93162	61836	55106
0	93168	61836	55096
0	93174	61836	55086
0	93180	61836	55076
0	93186	61836	55066
0	93192	61836	55056
0	93198	61836	55046
0	93204	61836	55036
0	93210	61836	55026
0	93216	61836	55016
0	93222	61836	55006
0	93228	61836	54996
0	93234	61836	54986
0	93240	61836	54976
0	93246	61836	54966
0	93252	61836	54956
0	93258	61836	54946
0	93264	61836	54936
0	93270	61836	54926
0	93276	61836	54916
0	93282	61836	54906
0	93288	61836	54896
0	93294	61836	54886
0	93300	61836	54876
0	93306	61836	54866
0	93312	61836	54856
0	93318	61836	54846
0	93324	61836	54836
0	93330	61836	54826
0	93336	61836	54816
0	93342	61836	54806
0	93348	61836	54796
0	93354	61836	54786
0	93360	61836	54776
0	93366	61836	54766
0	93372	61836	54756
0	93378	61836	54746
0	93384	61836	54736
0	93390	61836	54726
0	93396	61836	54716
0	93402	61836	54706
0	93408	61836	54696
0	93414	61836	54686
0	93420	61836	54676
0	93426	61836	54666
0	93432	61836	54656
0	93438	61836	54646
0	93444	61836	54636
0	93450	61836	54626
0	93456	61836	54616
0	93462	61836	54606
0	93468	61836	54596
0	93474	61836	54586
0	93480	61836	54576
0	93486	61836	54566
0	93492	61836	54556
0	93498	61836	54546
0	93504	61836	54536
0	93510	61836	54526
0	93516	61836	54516
0	93522	61836	54506
0	93528	61836	54496
0	93534	61836	54486
0	93540	61836	54476
0	93546	61836	54466
0	93552	61836	54456
0	93558	61836	54446
0	93564	61836	54436
0	93570	61836	54426
0	93576	61836	54416
0	93582	61836	54406
0	93588	61836	54396
0	93594	61836	54386
0	93600	61836	54376
0	93606	61836	54366
0	93612	61836	54356
0	93618	61836	54346
0	93624	61836	54336
0	93630	61836	54326
0	93636	61836	54316
0	93642	61836	54306
0	93648	61836	54296
0	93654	61836	54286
0	93660	61836	54276
0	93666	61836	54266
0	93672	61836	54256
0	93678	61836	54246
0	93684	61836	54236
0	93690	61836	54226
0	93696	61836	54216
0	93702	61836	54206
0	93708	61836	54196
0	93714	61836	54186
0	93720	61836	54176
0	93726	61836	54166
0	93732	61836	54156
0	93738	61836	54146
0	93744	61836	54136
0	93750	61836	54126
0	93756	61836	54116
0	93762	61836	54106
0	93768	61836	54096
0	93774	61836	54086
0	93780	61836	54076
0	93786	61836	54066
0	93792	61836	54056
0	93798	61836	54046
0	93804	61836	54036
0	93810	61836	54026
0	93816	61836	54016
0	93822	61836	54006
0	93828	61836	53996
0	93834	61836	53986
0	93840	61836	53976
0	93846	61836	53966
0	93852	61836	53956
0	93858	61836	53946
0	93864	61836	53936
0	93870	61836	53926
0	93876	61836	53916
0	93882	61836	53906
0	93888	61836	53896
0	93894	61836	53886
0	93900	61836	53876
0	93906	61836	53866
0	93912	61836	53856
0	93918	61836	53846
0	93924	61836	53836
0	93930	61836	53826
0	93936	61836	53816
0	93942	61836	53806
0	93948	61836	53796
0	93954	61836	53786
0	93960	61836	53776
0	93966	61836	53766
0	93972	61836	53756
0	93978	61836	53746
0	93984	61836	53736
0	93990	61836	53726
0	93996	61836	53716
0	94002	61836	53706
0	94008	61836	53696
0	94014	61836	53686
0	94020	61836	53676
0	94026	61836	53666
0	94032	61836	53656
0	94038	61836	53646
0	94044	61836	53636
0	94050	61836	53626
0	94056	61836	53616
0	94062	61836	53606
0	94068	61836	53596
0	94074	61836	53586
0	94080	61836	53576
0	94086	61836	53566
0	94092	61836	53556
0	94098	61836	53546
0	94104	61836	53536
0	94110	61836	53526
0	94116	61836	53516
0	94122	61836	53506
0	94128	61836	53496
0	94134	61836	53486
0	94140	61836	53476
0	94146	61836	53466
0	94152	61836	53456
0	94158	61836	53446
0	94164	61836	53436
0	94170	61836	53426
0	94176	61836	53416
0	94182	61836	53406
0	94188	61836	53396
0	94194	61836	53386
0	94200	61836	53376
0	94206	61836	53366
0	94212	61836	53356
0	94218	61836	53346
0	94224	61836	53336
0	94230	61836	53326
0	94236	61836	53316
0	94242	61836	53306
0	94248	61836	53296
0	94254	61836	53286
0	94260	61836	53276
0	94266	61836	53266
0	94272	61836	53256
0	94278	61836	53246
0	94284	61836	53236
0	94290	61836	53226
0	94296	61836	53216
0	94302	61836	53206
0	94308	61836	53196
0	94314	61836	53186
0	94320	61836	53176
0	94326	61836	53166
0	94332	61836	53156
0	94338	61836	53146
0	94344	61836	53136
0	94350	61836	53126
0	94356	61836	53116
0	94362	61836	53106
0	94368	61836	53096
0	94374	61836	53086
0	94380	61836	53076
0	94386	61836	53066
0	94392	61836	53056
0	94398	61836	53046
0	94404	61836	53036
0	94410	61836	53026
0	94416	61836	53016
0	94422	61836	53006
0	94428	61836	52996
0	94434	61836	52986
0	94440	61836	52976
0	94446	61836	52966
0	94452	61836	52956
0	94458	61836	52946
0	94464	61836	52936
0	94470	61836	52926
0	94476	61836	52916
0	94482	61836	52906
0	94488	61836	52896
0	94494	61836	52886
0	94500	61836	52876
0	94506	61836	52866
0	94512	61836	52856
0	94518	61836	52846
0	94524	61836	52836
0	94530	61836	52826
0	94536	61836	52816
0	94542	61836	52806
0	94548	61836	52796
0	94554	61836	52786
0	94560	61836	52776
0	94566	61836	52766
0	94572	61836	52756
0	94578	61836	52746
0	94584	61836	52736
0	94590	61836	52726
0	94596	61836	52716
0	94602	61836	52706
0	94608	61836	52696
0	94614	61836	52686
0	94620	61836	52676
0	94626	61836	52666
0	94632	61836	52656
0	94638	61836	52646
0	94644	61836	52636
0	94650	61836	52626
0	94656	61836	52616
0	94662	61836	52606
0	94668	61836	52596
0	94674	61836	52586
0	94680	61836	52576
0	94686	61836	52566
0	94692	61836	52556
0	94698	61836	52546
0	94704	61836	52536
0	94710	61836	52526
0	94716	61836	52516
0	94722	61836	52506
0	94728	61836	52496
0	94734	61836	52486
0	94740	61836	52476
0	94746	61836	52466
0	94752	61836	52456
0	94758	61836	52446
0	94764	61836	52436
0	94770	61836	52426
0	94776	61836	52416
0	94782	61836	52406
0	94788	61836	52396
0	94794	61836	52386
0	94800	61836	52376
0	94806	61836	52366
0	94812	61836	52356
0	94818	61836	52346
0	94824	61836	52336
0	94830	61836	52326
0	94836	61836	52316
0	94842	61836	52306
0	94848	61836	52296
0	94854	61836	52286
0	94860	61836	52276
0	94866	61836	52266
0	94872	61836	52256
0	94878	61836	52246
0	94884	61836	52236
0	94890	61836	52226
0	94896	61836	52216
0	94902	61836	52206
0	94908	61836	52196
0	94914	61836	52186
0	94920	61836	52176
0	94926	61836	52166
0	94932	61836	52156
0	94938	61836	52146
0	94944	61836	52136
0	94950	61836	52126
0	94956	61836	52116
0	94962	61836	52106
0	94968	61836	52096
0	94974	61836	52086
0	94980	61836	52076
0	94986	61836	52066
0	94992	61836	52056
0	94998	61836	52046
0	95004	61836	52036
0	95010	61836	52026
0	95016	61836	52016
0	95022	61836	52006
0	95028	61836	51996
0	95034	61836	51986
0	95040	61836	51976
0	95046	61836	51966
0	95052	61836	51956
0	95058	61836	51946
0	95064	61836	51936
0	95070	61836	51926
0	95076	61836	51916
0	95082	61836	51906
0	95088	61836	51896
0	95094	61836	51886
0	95100	61836	51876
0	95106	61836	51866
0	95112	61836	51856
0	95118	61836	51846
0	95124	61836	51836
0	95130	61836	51826
0	95136	61836	51816
0	95142	61836	51806
0	95148	61836	51796
0	95154	61836	51786
0	95160	61836	51776
0	95166	61836	51766
0	95172	61836	51756
0	95178	61836	51746
0	95184	61836	51736
0	95190	61836	51726
0	95196	61836	51716
0	95202	61836	51706
0	95208	61836	51696
0	95214	61836	51686
0	95220	61836	51676
0	95226	61836	51666
0	95232	61836	51656
0	95238	61836	51646
0	95244	61836	51636
0	95250	61836	51626
0	95256	61836	51616
0	95262	61836	51606
0	95268	61836	51596
0	95274	61836	51586
0	95280	61836	51576
0	95286	61836	51566
0	95292	61836	51556
0	95298	61836	51546
0	95304	61836	51536
0	95310	61836	51526
0	95316	61836	51516
0	95322	61836	51506
0	95328	61836	51496
0	95334	61836	51486
0	95340	61836	51476
0	95346	61836	51466
0	95352	61836	51456
0	95358	61836	51446
0	95364	61836	51436
0	95370	61836	51426
0	95376	61836	51416
0	95382	61836	51406
0	95388	61836	51396
0	95394	61836	51386
0	95400	61836	51376
0	95406	61836	51366
0	95412	61836	51356
0	95418	61836	51346
0	95424	61836	51336
0	95430	61836	51326
0	95436	61836	51316
0	95442	61836	51306
0	95448	61836	51296
0	95454	61836	51286
0	95460	61836	51276
0	95466	61836	51266
0	95472	61836	51256
0	95478	61836	51246
0	95484	61836	51236
0	95490	61836	51226
0	95496	61836	51216
0	95502	61836	51206
0	95508	61836	51196
0	95514	61836	51186
0	95520	61836	51176
0	95526	61836	51166
0	95532	61836	51156
0	95538	61836	51146
0	95544	61836	51136
0	95550	61836	51126
0	95556	61836	51116
0	95562	61836	51106
0	95568	61836	51096
0	95574	61836	51086
0	95580	61836	51076
0	95586	61836	51066
0	95592	61836	51056
0	95598	61836	51046
0	95604	61836	51036
0	95610	61836	51026
0	95616	61836	51016
0	95622	61836	51006
0	95628	61836	50996
0	95634	61836	50986
0	95640	61836	50976
0	95646	61836	50966
0	95652	61836	50956
0	95658	61836	50946
0	95664	61836	50936
0	95670	61836	50926
0	95676	61836	50916
0	95682	61836	50906
0	95688	61836	50896
0	95694	61836	50886
0	95700	61836	50876
0	95706	61836	50866
0	95712	61836	50856
0	95718	61836	50846
0	95724	61836	50836
0	95730	61836	50826
0	95736	61836	50816
0	95742	61836	50806
0	95748	61836	50796
0	95754	61836	50786
0	95760	61836	50776
0	95766	61836	50766
0	95772	61836	50756
0	95778	61836	50746
0	95784	61836	50736
0	95790	61836	50726
0	95796	61836	50716
0	95802	61836	50706
0	95808	61836	50696
0	95814	61836	50686
0	95820	61836	50676
0	95826	61836	50666
0	95832	61836	50656
0	95838	61836	50646
0	95844	61836	50636
0	95850	61836	50626
0	95856	61836	50616
0	95862	61836	50606
0	95868	61836	50596
0	95874	61836	50586
0	95880	61836	50576
0	95886	61836	50566
0	95892	61836	50556
0	95898	61836	50546
0	95904	61836	50536
0	95910	61836	50526
0	95916	61836	50516
0	95922	61836	50506
0	95928	61836	50496
0	95934	61836	50486
0	95940	61836	50476
0	95946	61836	50466
0	95952	61836	50456
0	95958	61836	50446
0	95964	61836	50436
0	95970	61836	50426
0	95976	61836	50416
0	95982	61836	50406
0	95988	61836	50396
0	95994	61836	50386
0	96000	61836	50376
0	96006	61836	50366
0	96012	61836	50356
0	96018	61836	50346
0	96024	61836	50336
0	96030	61836	50326
0	96036	61836	50316
0	96042	61836	50306
0	96048	61836	50296
0	96054	61836	50286
0	96060	61836	50276
0	96066	61836	50266
0	96072	61836	50256
0	96078	61836	50246
0	96084	61836	50236
0	96090	61836	50226
0	96096	61836	50216
0	96102	61836	50206
0	96108	61836	50196
0	96114	61836	50186
0	96120	61836	50176
0	96126	61836	50166
0	96132	61836	50156
0	96138	61836	50146
0	96144	61836	50136
0	96150	61836	50126
0	96156	61836	50116
0	96162	61836	50106
0	96168	61836	50096
0	96174	61836	50086
0	96180	61836	50076
0	96186	61836	50066
0	96192	61836	50056
0	96198	61836	50046
0	96204	61836	50036
0	96210	61836	50026
0	96216	61836	50016
0	96222	61836	50006
0	96228	61836	49996
0	96234	61836	49986
0	96240	61836	49976
0	96246	61836	49966
0	96252	61836	49956
0	96258	61836	49946
0	96264	61836	49936
0	96270	61836	49926
0	96276	61836	49916
0	96282	61836	49906
0	96288	61836	49896
0	96294	61836	49886
0	96300	61836	49876
0	96306	61836	49866
0	96312	61836	49856
0	96318	61836	49846
0	96324	61836	49836
0	96330	61836	49826
0	96336	61836	49816
0	96342	61836	49806
0	96348	61836	49796
0	96354	61836	49786
0	96360	61836	49776
0	96366	61836	49766
0	96372	61836	49756
0	96378	61836	49746
0	96384	61836	49736
0	96390	61836	49726
0	96396	61836	49716
0	96402	61836	49706
0	96408	61836	49696
0	96414	61836	49686
0	96420	61836	49676
0	96426	61836	49666
0	96432	61836	49656
0	96438	61836	49646
0	96444	61836	49636
0	96450	61836	49626
0	96456	61836	49616
0	96462	61836	49606
0	96468	61836	49596
0	96474	61836	49586
0	96480	61836	49576
0	96486	61836	49566
0	96492	61836	49556
0	96498	61836	49546
0	96504	61836	49536
0	96510	61836	49526
0	96516	61836	49516
0	96522	61836	49506
0	96528	61836	49496
0	96534	61836	49486
0	96540	61836	49476
0	96546	61836	49466
0	96552	61836	49456
0	96558	61836	49446
0	96564	61836	49436
0	96570	61836	49426
0	96576	61836	49416
0	96582	61836	49406
0	96588	61836	49396
0	96594	61836	49386
0	96600	61836	49376
0	96606	61836	49366
0	96612	61836	49356
0	96618	61836	49346
0	96624	61836	49336
0	96630	61836	49326
0	96636	61836	49316
0	96642	61836	49306
0	96648	61836	49296
0	96654	61836	49286
0	96660	61836	49276
0	96666	61836	49266
0	96672	61836	49256
0	96678	61836	49246
0	96684	61836	49236
0	96690	61836	49226
0	96696	61836	49216
0	96702	61836	49206
0	96708	61836	49196
0	96714	61836	49186
0	96720	61836	49176
0	96726	61836	49166
0	96732	61836	49156
0	96738	61836	49146
0	96744	61836	49136
0	96750	61836	49126
0	96756	61836	49116
0	96762	61836	49106
0	96768	61836	49096
0	96774	61836	49086
0	96780	61836	49076
0	96786	61836	49066
0	96792	61836	49056
0	96798	61836	49046
0	96804	61836	49036
0	96810	61836	49026
0	96816	61836	49016
0	96822	61836	49006
0	96828	61836	48996
0	96834	61836	48986
0	96840	61836	48976
0	96846	61836	48966
0	96852	61836	48956
0	96858	61836	48946
0	96864	61836	48936
0	96870	61836	48926
0	96876	61836	48916
0	96882	61836	48906
0	96888	61836	48896
0	96894	61836	48886
0	96900	61836	48876
0	96906	61836	48866
0	96912	61836	48856
0	96918	61836	48846
0	96924	61836	48836
0	96930	61836	48826
0	96936	61836	48816
0	96942	61836	48806
0	96948	61836	48796
0	96954	61836	48786
0	96960	61836	48776
0	96966	61836	48766
0	96972	61836	48756
0	96978	61836	48746
0	96984	61836	48736
0	96990	61836	48726
0	96996	61836	48716
0	97002	61836	48706
0	97008	61836	48696
0	97014	61836	48686
0	97020	61836	48676
0	97026	61836	48666
0	97032	61836	48656
0	97038	61836	48646
0	97044	61836	48636
0	97050	61836	48626
0	97056	61836	48616
0	97062	61836	48606
0	97068	61836	48596
0	97074	61836	48586
0	97080	61836	48576
0	97086	61836	48566
0	97092	61836	48556
0	97098	61836	48546
0	97104	61836	48536
0	97110	61836	48526
0	97116	61836	48516
0	97122	61836	48506
0	97128	61836	48496
0	97134	61836	48486
0	97140	61836	48476
0	97146	61836	48466
0	97152	61836	48456
0	97158	61836	48446
0	97164	61836	48436
0	97170	61836	48426
0	97176	61836	48416
0	97182	61836	48406
0	97188	61836	48396
0	97194	61836	48386
0	97200	61836	48376
0	97206	61836	48366
0	97212	61836	48356
0	97218	61836	48346
0	97224	61836	48336
0	97230	61836	48326
0	97236	61836	48316
0	97242	61836	48306
0	97248	61836	48296
0	97254	61836	48286
0	97260	61836	48276
0	97266	61836	48266
0	97272	61836	48256
0	97278	61836	48246
0	97284	61836	48236
0	97290	61836	48226
0	97296	61836	48216
0	97302	61836	48206
0	97308	61836	48196
0	97314	61836	48186
0	97320	61836	48176
0	97326	61836	48166
0	97332	61836	48156
0	97338	61836	48146
0	97344	61836	48136
0	97350	61836	48126
0	97356	61836	48116
0	97362	61836	48106
0	97368	61836	48096
0	97374	61836	48086
0	97380	61836	48076
0	97386	61836	48066
0	97392	61836	48056
0	97398	61836	48046
0	97404	61836	48036
0	97410	61836	48026
0	97416	61836	48016
0	97422	61836	48006
0	97428	61836	47996
0	97434	61836	47986
0	97440	61836	47976
0	97446	61836	47966
0	97452	61836	47956
0	97458	61836	47946
0	97464	61836	47936
0	97470	61836	47926
0	97476	61836	47916
0	97482	61836	47906
0	97488	61836	47896
0	97494	61836	47886
0	97500	61836	47876
0	97506	61836	47866
0	97512	61836	47856
0	97518	61836	47846
0	97524	61836	47836
0	97530	61836	47826
0	97536	61836	47816
0	97542	61836	47806
0	97548	61836	47796
0	97554	61836	47786
0	97560	61836	47776
0	97566	61836	47766
0	97572	61836	47756
0	97578	61836	47746
0	97584	61836	47736
0	97590	61836	47726
0	97596	61836	47716
0	97602	61836	47706
0	97608	61836	47696
0	97614	61836	47686
0	97620	61836	47676
0	97626	61836	47666
0	97632	61836	47656
0	97638	61836	47646
0	97644	61836	47636
0	97650	61836	47626
0	97656	61836	47616
0	97662	61836	47606
0	97668	61836	47596
0	97674	61836	47586
0	97680	61836	47576
0	97686	61836	47566
0	97692	61836	47556
0	97698	61836	47546
0	97704	61836	47536
0	97710	61836	47526
0	97716	61836	47516
0	97722	61836	47506
0	97728	61836	47496
0	97734	61836	47486
0	97740	61836	47476
0	97746	61836	47466
0	97752	61836	47456
0	97758	61836	47446
0	97764	61836	47436
0	97770	61836	47426
0	97776	61836	47416
0	97782	61836	47406
0	97788	61836	47396
0	97794	61836	47386
0	97800	61836	47376
0	97806	61836	47366
0	97812	61836	47356
0	97818	61836	47346
0	97824	61836	47336
0	97830	61836	47326
0	97836	61836	47316
0	97842	61836	47306
0	97848	61836	47296
0	97854	61836	47286
0	97860	61836	47276
0	97866	61836	47266
0	97872	61836	47256
0	97878	61836	47246
0	97884	61836	47236
0	97890	61836	47226
0	97896	61836	47216
0	97902	61836	47206
0	97908	61836	47196
0	97914	61836	47186
0	97920	61836	47176
0	97926	61836	47166
0	97932	61836	47156
0	97938	61836	47146
0	97944	61836	47136
0	97950	61836	47126
0	97956	61836	47116
0	97962	61836	47106
0	97968	61836	47096
0	97974	61836	47086
0	97980	61836	47076
0	97986	61836	47066
0	97992	61836	47056
0	97998	61836	47046
0	98004	61836	47036
0	98010	61836	47026
0	98016	61836	47016
0	98022	61836	47006
0	98028	61836	46996
0	98034	61836	46986
0	98040	61836	46976
0	98046	61836	46966
0	98052	61836	46956
0	98058	61836	46946
0	98064	61836	46936
0	98070	61836	46926
0	98076	61836	46916
0	98082	61836	46906
0	98088	61836	46896
0	98094	61836	46886
0	98100	61836	46876
0	98106	61836	46866
0	98112	61836	46856
0	98118	61836	46846
0	98124	61836	46836
0	98130	61836	46826
0	98136	61836	46816
0	98142	61836	46806
0	98148	61836	46796
0	98154	61836	46786
0	98160	61836	46776
0	98166	61836	46766
0	98172	61836	46756
0	98178	61836	46746
0	98184	61836	46736
0	98190	61836	46726
0	98196	61836	46716
0	98202	61836	46706
0	98208	61836	46696
0	98214	61836	46686
0	98220	61836	46676
0	98226	61836	46666
0	98232	61836	46656
0	98238	61836	46646
0	98244	61836	46636
0	98250	61836	46626
0	98256	61836	46616
0	98262	61836	46606
0	98268	61836	46596
0	98274	61836	46586
0	98280	61836	46576
0	98286	61836	46566
0	98292	61836	46556
0	98298	61836	46546
0	98304	61836	46536
0	98310	61836	46526
0	98316	61836	46516
0	98322	61836	46506
0	98328	61836	46496
0	98334	61836	46486
0	98340	61836	46476
0	98346	61836	46466
0	98352	61836	46456
0	98358	61836	46446
0	98364	61836	46436
0	98370	61836	46426
0	98376	61836	46416
0	98382	61836	46406
0	98388	61836	46396
0	98394	61836	46386
0	98400	61836	46376
0	98406	61836	46366
0	98412	61836	46356
0	98418	61836	46346
0	98424	61836	46336
0	98430	61836	46326
0	98436	61836	46316
0	98442	61836	46306
0	98448	61836	46296
0	98454	61836	46286
0	98460	61836	46276
0	98466	61836	46266
0	98472	61836	46256
0	98478	61836	46246
0	98484	61836	46236
0	98490	61836	46226
0	98496	61836	46216
0	98502	61836	46206
0	98508	61836	46196
0	98514	61836	46186
0	98520	61836	46176
0	98526	61836	46166
0	98532	61836	46156
0	98538	61836	46146
0	98544	61836	46136
0	98550	61836	46126
0	98556	61836	46116
0	98562	61836	46106
0	98568	61836	46096
0	98574	61836	46086
0	98580	61836	46076
0	98586	61836	46066
0	98592	61836	46056
0	98598	61836	46046
0	98604	61836	46036
0	98610	61836	46026
0	98616	61836	46016
0	98622	61836	46006
0	98628	61836	45996
0	98634	61836	45986
0	98640	61836	45976
0	98646	61836	45966
0	98652	61836	45956
0	98658	61836	45946
0	98664	61836	45936
0	98670	61836	45926
0	98676	61836	45916
0	98682	61836	45906
0	98688	61836	45896
0	98694	61836	45886
0	98700	61836	45876
0	98706	61836	45866
0	98712	61836	45856
0	98718	61836	45846
0	98724	61836	45836
0	98730	61836	45826
0	98736	61836	45816
0	98742	61836	45806
0	98748	61836	45796
0	98754	61836	45786
0	98760	61836	45776
0	98766	61836	45766
0	98772	61836	45756
0	98778	61836	45746
0	98784	61836	45736
0	98790	61836	45726
0	98796	61836	45716
0	98802	61836	45706
0	98808	61836	45696
0	98814	61836	45686
0	98820	61836	45676
0	98826	61836	45666
0	98832	61836	45656
0	98838	61836	45646
0	98844	61836	45636
0	98850	61836	45626
0	98856	61836	45616
0	98862	61836	45606
0	98868	61836	45596
0	98874	61836	45586
0	98880	61836	45576
0	98886	61836	45566
0	98892	61836	45556
0	98898	61836	45546
0	98904	61836	45536
0	98910	61836	45526
0	98916	61836	45516
0	98922	61836	45506
0	98928	61836	45496
0	98934	61836	45486
0	98940	61836	45476
0	98946	61836	45466
0	98952	61836	45456
0	98958	61836	45446
0	98964	61836	45436
0	98970	61836	45426
0	98976	61836	45416
0	98982	61836	45406
0	98988	61836	45396
0	98994	61836	45386
0	99000	61836	45376
0	99006	61836	45366
0	99012	61836	45356
0	99018	61836	45346
0	99024	61836	45336
0	99030	61836	45326
0	99036	61836	45316
0	99042	61836	45306
0	99048	61836	45296
0	99054	61836	45286
0	99060	61836	45276
0	99066	61836	45266
0	99072	61836	45256
0	99078	61836	45246
0	99084	61836	45236
0	99090	61836	45226
0	99096	61836	45216
0	99102	61836	45206
0	99108	61836	45196
0	99114	61836	45186
0	99120	61836	45176
0	99126	61836	45166
0	99132	61836	45156
0	99138	61836	45146
0	99144	61836	45136
0	99150	61836	45126
0	99156	61836	45116
0	99162	61836	45106
0	99168	61836	45096
0	99174	61836	45086
0	99180	61836	45076
0	99186	61836	45066
0	99192	61836	45056
0	99198	61836	45046
0	99204	61836	45036
0	99210	61836	45026
0	99216	61836	45016
0	99222	61836	45006
0	99228	61836	44996
0	99234	61836	44986
0	99240	61836	44976
0	99246	61836	44966
0	99252	61836	44956
0	99258	61836	44946
0	99264	61836	44936
0	99270	61836	44926
0	99276	61836	44916
0	99282	61836	44906
0	99288	61836	44896
0	99294	61836	44886
0	99300	61836	44876
0	99306	61836	44866
0	99312	61836	44856
0	99318	61836	44846
0	99324	61836	44836
0	99330	61836	44826
0	99336	61836	44816
0	99342	61836	44806
0	99348	61836	44796
0	99354	61836	44786
0	99360	61836	44776
0	99366	61836	44766
0	99372	61836	44756
0	99378	61836	44746
0	99384	61836	44736
0	99390	61836	44726
0	99396	61836	44716
0	99402	61836	44706
0	99408	61836	44696
0	99414	61836	44686
0	99420	61836	44676
0	99426	61836	44666
0	99432	61836	44656
0	99438	61836	44646
0	99444	61836	44636
0	99450	61836	44626
0	99456	61836	44616
0	99462	61836	44606
0	99468	61836	44596
0	99474	61836	44586
0	99480	61836	44576
0	99486	61836	44566
0	99492	61836	44556
0	99498	61836	44546
0	99504	61836	44536
0	99510	61836	44526
0	99516	61836	44516
0	99522	61836	44506
0	99528	61836	44496
0	99534	61836	44486
0	99540	61836	44476
0	99546	61836	44466
0	99552	61836	44456
0	99558	61836	44446
0	99564	61836	44436
0	99570	61836	44426
0	99576	61836	44416
0	99582	61836	44406
0	99588	61836	44396
0	99594	61836	44386
0	99600	61836	44376
0	99606	61836	44366
0	99612	61836	44356
0	99618	61836	44346
0	99624	61836	44336
0	99630	61836	44326
0	99636	61836	44316
0	99642	61836	44306
0	99648	61836	44296
0	99654	61836	44286
0	99660	61836	44276
0	99666	61836	44266
0	99672	61836	44256
0	99678	61836	44246
0	99684	61836	44236
0	99690	61836	44226
0	99696	61836	44216
0	99702	61836	44206
0	99708	61836	44196
0	99714	61836	44186
0	99720	61836	44176
0	99726	61836	44166
0	99732	61836	44156
0	99738	61836	44146
0	99744	61836	44136
0	99750	61836	44126
0	99756	61836	44116
0	99762	61836	44106
0	99768	61836	44096
0	99774	61836	44086
0	99780	61836	44076
0	99786	61836	44066
0	99792	61836	44056
0	99798	61836	44046
0	99804	61836	44036
0	99810	61836	44026
0	99816	61836	44016
0	99822	61836	44006
0	99828	61836	43996
0	99834	61836	43986
0	99840	61836	43976
0	99846	61836	43966
0	99852	61836	43956
0	99858	61836	43946
0	99864	61836	43936
0	99870	61836	43926
0	99876	61836	43916
0	99882	61836	43906
0	99888	61836	43896
0	99894	61836	43886
0	99900	61836	43876
0	99906	61836	43866
0	99912	61836	43856
0	99918	61836	43846
0	99924	61836	43836
0	99930	61836	43826
0	99936	61836	43816
0	99942	61836	43806
0	99948	61836	43796
0	99954	61836	43786
0	99960	61836	43776
0	99966	61836	43766
0	99972	61836	43756
0	99978	61836	43746
0	99984	61836	43736
0	99990	61836	43726
0	99996	61836	43716
0	100002	61836	43706
0	100008	61836	43696
0	100014	61836	43686
0	100020	61836	43676
0	100026	61836	43666
0	100032	61836	43656
0	100038	61836	43646
0	100044	61836	43636
0	100050	61836	43626
0	100056	61836	43616
0	100062	61836	43606
0	100068	61836	43596
0	100074	61836	43586
0	100080	61836	43576
0	100086	61836	43566
0	100092	61836	43556
0	100098	61836	43546
0	100104	61836	43536
0	100110	61836	43526
0	100116	61836	43516
0	100122	61836	43506
0	100128	61836	43496
0	100134	61836	43486
0	100140	61836	43476
0	100146	61836	43466
0	100152	61836	43456
0	100158	61836	43446
0	100164	61836	43436
0	100170	61836	43426
0	100176	61836	43416
0	100182	61836	43406
0	100188	61836	43396
0	100194	61836	43386
0	100200	61836	43376
0	100206	61836	43366
0	100212	61836	43356
0	100218	61836	43346
0	100224	61836	43336
0	100230	61836	43326
0	100236	61836	43316
0	100242	61836	43306
0	100248	61836	43296
0	100254	61836	43286
0	100260	61836	43276
0	100266	61836	43266
0	100272	61836	43256
0	100278	61836	43246
0	100284	61836	43236
0	100290	61836	43226
0	100296	61836	43216
0	100302	61836	43206
0	100308	61836	43196
0	100314	61836	43186
0	100320	61836	43176
0	100326	61836	43166
0	100332	61836	43156
0	100338	61836	43146
0	100344	61836	43136
0	100350	61836	43126
0	100356	61836	43116
0	100362	61836	43106
0	100368	61836	43096
0	100374	61836	43086
0	100380	61836	43076
0	100386	61836	43066
0	100392	61836	43056
0	100398	61836	43046
0	100404	61836	43036
0	100410	61836	43026
0	100416	61836	43016
0	100422	61836	43006
0	100428	61836	42996
0	100434	61836	42986
0	100440	61836	42976
0	100446	61836	42966
0	100452	61836	42956
0	100458	61836	42946
0	100464	61836	42936
0	100470	61836	42926
0	100476	61836	42916
0	100482	61836	42906
0	100488	61836	42896
0	100494	61836	42886
0	100500	61836	42876
0	100506	61836	42866
0	100512	61836	42856
0	100518	61836	42846
0	100524	61836	42836
0	100530	61836	42826
0	100536	61836	42816
0	100542	61836	42806
0	100548	61836	42796
0	100554	61836	42786
0	100560	61836	42776
0	100566	61836	42766
0	100572	61836	42756
0	100578	61836	42746
0	100584	61836	42736
0	100590	61836	42726
0	100596	61836	42716
0	100602	61836	42706
0	100608	61836	42696
0	100614	61836	42686
0	100620	61836	42676
0	100626	61836	42666
0	100632	61836	42656
0	100638	61836	42646
0	100644	61836	42636
0	100650	61836	42626
0	100656	61836	42616
0	100662	61836	42606
0	100668	61836	42596
0	100674	61836	42586
0	100680	61836	42576
0	100686	61836	42566
0	100692	61836	42556
0	100698	61836	42546
0	100704	61836	42536
0	100710	61836	42526
0	100716	61836	42516
0	100722	61836	42506
0	100728	61836	42496
0	100734	61836	42486
0	100740	61836	42476
0	100746	61836	42466
0	100752	61836	42456
0	100758	61836	42446
0	100764	61836	42436
0	100770	61836	42426
0	100776	61836	42416
0	100782	61836	42406
0	100788	61836	42396
0	100794	61836	42386
0	100800	61836	42376
0	100806	61836	42366
0	100812	61836	42356
0	100818	61836	42346
0	100824	61836	42336
0	100830	61836	42326
0	100836	61836	42316
0	100842	61836	42306
0	100848	61836	42296
0	100854	61836	42286
0	100860	61836	42276
0	100866	61836	42266
0	100872	61836	42256
0	100878	61836	42246
0	100884	61836	42236
0	100890	61836	42226
0	100896	61836	42216
0	100902	61836	42206
0	100908	61836	42196
0	100914	61836	42186
0	100920	61836	42176
0	100926	61836	42166
0	100932	61836	42156
0	100938	61836	42146
0	100944	61836	42136
0	100950	61836	42126
0	100956	61836	42116
0	100962	61836	42106
0	100968	61836	42096
0	100974	61836	42086
0	100980	61836	42076
0	100986	61836	42066
0	100992	61836	42056
0	100998	61836	42046
0	101004	61836	42036
0	101010	61836	42026
0	101016	61836	42016
0	101022	61836	42006
0	101028	61836	41996
0	101034	61836	41986
0	101040	61836	41976
0	101046	61836	41966
0	101052	61836	41956
0	101058	61836	41946
0	101064	61836	41936
0	101070	61836	41926
0	101076	61836	41916
0	101082	61836	41906
0	101088	61836	41896
0	101094	61836	41886
0	101100	61836	41876
0	101106	61836	41866
0	101112	61836	41856
0	101118	61836	41846
0	101124	61836	41836
0	101130	61836	41826
0	101136	61836	41816
0	101142	61836	41806
0	101148	61836	41796
0	101154	61836	41786
0	101160	61836	41776
0	101166	61836	41766
0	101172	61836	41756
0	101178	61836	41746
0	101184	61836	41736
0	101190	61836	41726
0	101196	61836	41716
0	101202	61836	41706
0	101208	61836	41696
0	101214	61836	41686
0	101220	61836	41676
0	101226	61836	41666
0	101232	61836	41656
0	101238	61836	41646
0	101244	61836	41636
0	101250	61836	41626
0	101256	61836	41616
0	101262	61836	41606
0	101268	61836	41596
0	101274	61836	41586
0	101280	61836	41576
0	101286	61836	41566
0	101292	61836	41556
0	101298	61836	41546
0	101304	61836	41536
0	101310	61836	41526
0	101316	61836	41516
0	101322	61836	41506
0	101328	61836	41496
0	101334	61836	41486
0	101340	61836	41476
0	101346	61836	41466
0	101352	61836	41456
0	101358	61836	41446
0	101364	61836	41436
0	101370	61836	41426
0	101376	61836	41416
0	101382	61836	41406
0	101388	61836	41396
0	101394	61836	41386
0	101400	61836	41376
0	101406	61836	41366
0	101412	61836	41356
0	101418	61836	41346
0	101424	61836	41336
0	101430	61836	41326
0	101436	61836	41316
0	101442	61836	41306
0	101448	61836	41296
0	101454	61836	41286
0	101460	61836	41276
0	101466	61836	41266
0	101472	61836	41256
0	101478	61836	41246
0	101484	61836	41236
0	101490	61836	41226
0	101496	61836	41216
0	101502	61836	41206
0	101508	61836	41196
0	101514	61836	41186
0	101520	61836	41176
0	101526	61836	41166
0	101532	61836	41156
0	101538	61836	41146
0	101544	61836	41136
0	101550	61836	41126
0	101556	61836	41116
0	101562	61836	41106
0	101568	61836	41096
0	101574	61836	41086
0	101580	61836	41076
0	101586	61836	41066
0	101592	61836	41056
0	101598	61836	41046
0	101604	61836	41036
0	101610	61836	41026
0	101616	61836	41016
0	101622	61836	41006
0	101628	61836	40996
0	101634	61836	40986
0	101640	61836	40976
0	101646	61836	40966
0	101652	61836	40956
0	101658	61836	40946
0	101664	61836	40936
0	101670	61836	40926
0	101676	61836	40916
0	101682	61836	40906
0	101688	61836	40896
0	101694	61836	40886
0	101700	61836	40876
0	101706	61836	40866
0	101712	61836	40856
0	101718	61836	40846
0	101724	61836	40836
0	101730	61836	40826
0	101736	61836	40816
0	101742	61836	40806
0	101748	61836	40796
0	101754	61836	40786
0	101760	61836	40776
0	101766	61836	40766
0	101772	61836	40756
0	101778	61836	40746
0	101784	61836	40736
0	101790	61836	40726
0	101796	61836	40716
0	101802	61836	40706
0	101808	61836	40696
0	101814	61836	40686
0	101820	61836	40676
0	101826	61836	40666
0	101832	61836	40656
0	101838	61836	40646
0	101844	61836	40636
0	101850	61836	40626
0	101856	61836	40616
0	101862	61836	40606
0	101868	61836	40596
0	101874	61836	40586
0	101880	61836	40576
0	101886	61836	40566
0	101892	61836	40556
0	101898	61836	40546
0	101904	61836	40536
0	101910	61836	40526
0	101916	61836	40516
0	101922	61836	40506
0	101928	61836	40496
0	101934	61836	40486
0	101940	61836	40476
0	101946	61836	40466
0	101952	61836	40456
0	101958	61836	40446
0	101964	61836	40436
0	101970	61836	40426
0	101976	61836	40416
0	101982	61836	40406
0	101988	61836	40396
0	101994	61836	40386
0	102000	61836	40376
0	102006	61836	40366
0	102012	61836	40356
0	102018	61836	40346
0	102024	61836	40336
0	102030	61836	40326
0	102036	61836	40316
0	102042	61836	40306
0	102048	61836	40296
0	102054	61836	40286
0	102060	61836	40276
0	102066	61836	40266
0	102072	61836	40256
0	102078	61836	40246
0	102084	61836	40236
0	102090	61836	40226
0	102096	61836	40216
0	102102	61836	40206
0	102108	61836	40196
0	102114	61836	40186
0	102120	61836	40176
0	102126	61836	40166
0	102132	61836	40156
0	102138	61836	40146
0	102144	61836	40136
0	102150	61836	40126
0	102156	61836	40116
0	102162	61836	40106
0	102168	61836	40096
0	102174	61836	40086
0	102180	61836	40076
0	102186	61836	40066
0	102192	61836	40056
0	102198	61836	40046
0	102204	61836	40036
0	102210	61836	40026
0	102216	61836	40016
0	102222	61836	40006
0	102228	61836	39996
0	102234	61836	39986
0	102240	61836	39976
0	102246	61836	39966
0	102252	61836	39956
0	102258	61836	39946
0	102264	61836	39936
0	102270	61836	39926
0	102276	61836	39916
0	102282	61836	39906
0	102288	61836	39896
0	102294	61836	39886
0	102300	61836	39876
0	102306	61836	39866
0	102312	61836	39856
0	102318	61836	39846
0	102324	61836	39836
0	102330	61836	39826
0	102336	61836	39816
0	102342	61836	39806
0	102348	61836	39796
0	102354	61836	39786
0	102360	61836	39776
0	102366	61836	39766
0	102372	61836	39756
0	102378	61836	39746
0	102384	61836	39736
0	102390	61836	39726
0	102396	61836	39716
0	102402	61836	39706
0	102408	61836	39696
0	102414	61836	39686
0	102420	61836	39676
0	102426	61836	39666
0	102432	61836	39656
0	102438	61836	39646
0	102444	61836	39636
0	102450	61836	39626
0	102456	61836	39616
0	102462	61836	39606
0	102468	61836	39596
0	102474	61836	39586
0	102480	61836	39576
0	102486	61836	39566
0	102492	61836	39556
0	102498	61836	39546
0	102504	61836	39536
0	102510	61836	39526
0	102516	61836	39516
0	102522	61836	39506
0	102528	61836	39496
0	102534	61836	39486
0	102540	61836	39476
0	102546	61836	39466
0	102552	61836	39456
0	102558	61836	39446
0	102564	61836	39436
0	102570	61836	39426
0	102576	61836	39416
0	102582	61836	39406
0	102588	61836	39396
0	102594	61836	39386
0	102600	61836	39376
0	102606	61836	39366
0	102612	61836	39356
0	102618	61836	39346
0	102624	61836	39336
0	102630	61836	39326
0	102636	61836	39316
0	102642	61836	39306
0	102648	61836	39296
0	102654	61836	39286
0	102660	61836	39276
0	102666	61836	39266
0	102672	61836	39256
0	102678	61836	39246
0	102684	61836	39236
0	102690	61836	39226
0	102696	61836	39216
0	102702	61836	39206
0	102708	61836	39196
0	102714	61836	39186
0	102720	61836	39176
0	102726	61836	39166
0	102732	61836	39156
0	102738	61836	39146
0	102744	61836	39136
0	102750	61836	39126
0	102756	61836	39116
0	102762	61836	39106
0	102768	61836	39096
0	102774	61836	39086
0	102780	61836	39076
0	102786	61836	39066
0	102792	61836	39056
0	102798	61836	39046
0	102804	61836	39036
0	102810	61836	39026
0	102816	61836	39016
0	102822	61836	39006
0	102828	61836	38996
0	102834	61836	38986
0	102840	61836	38976
0	102846	61836	38966
0	102852	61836	38956
0	102858	61836	38946
0	102864	61836	38936
0	102870	61836	38926
0	102876	61836	38916
0	102882	61836	38906
0	102888	61836	38896
0	102894	61836	38886
0	102900	61836	38876
0	102906	61836	38866
0	102912	61836	38856
0	102918	61836	38846
0	102924	61836	38836
0	102930	61836	38826
0	102936	61836	38816
0	102942	61836	38806
0	102948	61836	38796
0	102954	61836	38786
0	102960	61836	38776
0	102966	61836	38766
0	102972	61836	38756
0	102978	61836	38746
0	102984	61836	38736
0	102990	61836	38726
0	102996	61836	38716
0	103002	61836	38706
0	103008	61836	38696
0	103014	61836	38686
0	103020	61836	38676
0	103026	61836	38666
0	103032	61836	38656
0	103038	61836	38646
0	103044	61836	38636
0	103050	61836	38626
0	103056	61836	38616
0	103062	61836	38606
0	103068	61836	38596
0	103074	61836	38586
0	103080	61836	38576
0	103086	61836	38566
0	103092	61836	38556
0	103098	61836	38546
0	103104	61836	38536
0	103110	61836	38526
0	103116	61836	38516
0	103122	61836	38506
0	103128	61836	38496
0	103134	61836	38486
0	103140	61836	38476
0	103146	61836	38466
0	103152	61836	38456
0	103158	61836	38446
0	103164	61836	38436
0	103170	61836	38426
0	103176	61836	38416
0	103182	61836	38406
0	103188	61836	38396
0	103194	61836	38386
0	103200	61836	38376
0	103206	61836	38366
0	103212	61836	38356
0	103218	61836	38346
0	103224	61836	38336
0	103230	61836	38326
0	103236	61836	38316
0	103242	61836	38306
0	103248	61836	38296
0	103254	61836	38286
0	103260	61836	38276
0	103266	61836	38266
0	103272	61836	38256
0	103278	61836	38246
0	103284	61836	38236
0	103290	61836	38226
0	103296	61836	38216
0	103302	61836	38206
0	103308	61836	38196
0	103314	61836	38186
0	103320	61836	38176
0	103326	61836	38166
0	103332	61836	38156
0	103338	61836	38146
0	103344	61836	38136
0	103350	61836	38126
0	103356	61836	38116
0	103362	61836	38106
0	103368	61836	38096
0	103374	61836	38086
0	103380	61836	38076
0	103386	61836	38066
0	103392	61836	38056
0	103398	61836	38046
0	103404	61836	38036
0	103410	61836	38026
0	103416	61836	38016
0	103422	61836	38006
0	103428	61836	37996
0	103434	61836	37986
0	103440	61836	37976
0	103446	61836	37966
0	103452	61836	37956
0	103458	61836	37946
0	103464	61836	37936
0	103470	61836	37926
0	103476	61836	37916
0	103482	61836	37906
0	103488	61836	37896
0	103494	61836	37886
0	103500	61836	37876
0	103506	61836	37866
0	103512	61836	37856
0	103518	61836	37846
0	103524	61836	37836
0	103530	61836	37826
0	103536	61836	37816
0	103542	61836	37806
0	103548	61836	37796
0	103554	61836	37786
0	103560	61836	37776
0	103566	61836	37766
0	103572	61836	37756
0	103578	61836	37746
0	103584	61836	37736
0	103590	61836	37726
0	103596	61836	37716
0	103602	61836	37706
0	103608	61836	37696
0	103614	61836	37686
0	103620	61836	37676
0	103626	61836	37666
0	103632	61836	37656
0	103638	61836	37646
0	103644	61836	37636
0	103650	61836	37626
0	103656	61836	37616
0	103662	61836	37606
0	103668	61836	37596
0	103674	61836	37586
0	103680	61836	37576
0	103686	61836	37566
0	103692	61836	37556
0	103698	61836	37546
0	103704	61836	37536
0	103710	61836	37526
0	103716	61836	37516
0	103722	61836	37506
0	103728	61836	37496
0	103734	61836	37486
0	103740	61836	37476
0	103746	61836	37466
0	103752	61836	37456
0	103758	61836	37446
0	103764	61836	37436
0	103770	61836	37426
0	103776	61836	37416
0	103782	61836	37406
0	103788	61836	37396
0	103794	61836	37386
0	103800	61836	37376
0	103806	61836	37366
0	103812	61836	37356
0	103818	61836	37346
0	103824	61836	37336
0	103830	61836	37326
0	103836	61836	37316
0	103842	61836	37306
0	103848	61836	37296
0	103854	61836	37286
0	103860	61836	37276
0	103866	61836	37266
0	103872	61836	37256
0	103878	61836	37246
0	103884	61836	37236
0	103890	61836	37226
0	103896	61836	37216
0	103902	61836	37206
0	103908	61836	37196
0	103914	61836	37186
0	103920	61836	37176
0	103926	61836	37166
0	103932	61836	37156
0	103938	61836	37146
0	103944	61836	37136
0	103950	61836	37126
0	103956	61836	37116
0	103962	61836	37106
0	103968	61836	37096
0	103974	61836	37086
0	103980	61836	37076
0	103986	61836	37066
0	103992	61836	37056
0	103998	61836	37046
0	104004	61836	37036
0	104010	61836	37026
0	104016	61836	37016
0	104022	61836	37006
0	104028	61836	36996
0	104034	61836	36986
0	104040	61836	36976
0	104046	61836	36966
0	104052	61836	36956
0	104058	61836	36946
0	104064	61836	36936
0	104070	61836	36926
0	104076	61836	36916
0	104082	61836	36906
0	104088	61836	36896
0	104094	61836	36886
0	104100	61836	36876
0	104106	61836	36866
0	104112	61836	36856
0	104118	61836	36846
0	104124	61836	36836
0	104130	61836	36826
0	104136	61836	36816
0	104142	61836	36806
0	104148	61836	36796
0	104154	61836	36786
0	104160	61836	36776
0	104166	61836	36766
0	104172	61836	36756
0	104178	61836	36746
0	104184	61836	36736
0	104190	61836	36726
0	104196	61836	36716
0	104202	61836	36706
0	104208	61836	36696
0	104214	61836	36686
0	104220	61836	36676
0	104226	61836	36666
0	104232	61836	36656
0	104238	61836	36646
0	104244	61836	36636
0	104250	61836	36626
0	104256	61836	36616
0	104262	61836	36606
0	104268	61836	36596
0	104274	61836	36586
0	104280	61836	36576
0	104286	61836	36566
0	104292	61836	36556
0	104298	61836	36546
0	104304	61836	36536
0	104310	61836	36526
0	104316	61836	36516
0	104322	61836	36506
0	104328	61836	36496
0	104334	61836	36486
0	104340	61836	36476
0	104346	61836	36466
0	104352	61836	36456
0	104358	61836	36446
0	104364	61836	36436
0	104370	61836	36426
0	104376	61836	36416
0	104382	61836	36406
0	104388	61836	36396
0	104394	61836	36386
0	104400	61836	36376
0	104406	61836	36366
0	104412	61836	36356
0	104418	61836	36346
0	104424	61836	36336
0	104430	61836	36326
0	104436	61836	36316
0	104442	61836	36306
0	104448	61836	36296
0	104454	61836	36286
0	104460	61836	36276
0	104466	61836	36266
0	104472	61836	36256
0	104478	61836	36246
0	104484	61836	36236
0	104490	61836	36226
0	104496	61836	36216
0	104502	61836	36206
0	104508	61836	36196
0	104514	61836	36186
0	104520	61836	36176
0	104526	61836	36166
0	104532	61836	36156
0	104538	61836	36146
0	104544	61836	36136
0	104550	61836	36126
0	104556	61836	36116
0	104562	61836	36106
0	104568	61836	36096
0	104574	61836	36086
0	104580	61836	36076
0	104586	61836	36066
0	104592	61836	36056
0	104598	61836	36046
0	104604	61836	36036
0	104610	61836	36026
0	104616	61836	36016
0	104622	61836	36006
0	104628	61836	35996
0	104634	61836	35986
0	104640	61836	35976
0	104646	61836	35966
0	104652	61836	35956
0	104658	61836	35946
0	104664	61836	35936
0	104670	61836	35926
0	104676	61836	35916
0	104682	61836	35906
0	104688	61836	35896
0	104694	61836	35886
0	104700	61836	35876
0	104706	61836	35866
0	104712	61836	35856
0	104718	61836	35846
0	104724	61836	35836
0	104730	61836	35826
0	104736	61836	35816
0	104742	61836	35806
0	104748	61836	35796
0	104754	61836	35786
0	104760	61836	35776
0	104766	61836	35766
0	104772	61836	35756
0	104778	61836	35746
0	104784	61836	35736
0	104790	61836	35726
0	104796	61836	35716
0	104802	61836	35706
0	104808	61836	35696
0	104814	61836	35686
0	104820	61836	35676
0	104826	61836	35666
0	104832	61836	35656
0	104838	61836	35646
0	104844	61836	35636
0	104850	61836	35626
0	104856	61836	35616
0	104862	61836	35606
0	104868	61836	35596
0	104874	61836	35586
0	104880	61836	35576
0	104886	61836	35566
0	104892	61836	35556
0	104898	61836	35546
0	104904	61836	35536
0	104910	61836	35526
0	104916	61836	35516
0	104922	61836	35506
0	104928	61836	35496
0	104934	61836	35486
0	104940	61836	35476
0	104946	61836	35466
0	104952	61836	35456
0	104958	61836	35446
0	104964	61836	35436
0	104970	61836	35426
0	104976	61836	35416
0	104982	61836	35406
0	104988	61836	35396
0	104994	61836	35386
0	105000	61836	35376
0	105006	61836	35366
0	105012	61836	35356
0	105018	61836	35346
0	105024	61836	35336
0	105030	61836	35326
0	105036	61836	35316
0	105042	61836	35306
0	105048	61836	35296
0	105054	61836	35286
0	105060	61836	35276
0	105066	61836	35266
0	105072	61836	35256
0	105078	61836	35246
0	105084	61836	35236
0	105090	61836	35226
0	105096	61836	35216
0	105102	61836	35206
0	105108	61836	35196
0	105114	61836	35186
0	105120	61836	35176
0	105126	61836	35166
0	105132	61836	35156
0	105138	61836	35146
0	105144	61836	35136
0	105150	61836	35126
0	105156	61836	35116
0	105162	61836	35106
0	105168	61836	35096
0	105174	61836	35086
0	105180	61836	35076
0	105186	61836	35066
0	105192	61836	35056
0	105198	61836	35046
0	105204	61836	35036
0	105210	61836	35026
0	105216	61836	35016
0	105222	61836	35006
0	105228	61836	34996
0	105234	61836	34986
0	105240	61836	34976
0	105246	61836	34966
0	105252	61836	34956
0	105258	61836	34946
0	105264	61836	34936
0	105270	61836	34926
0	105276	61836	34916
0	105282	61836	34906
0	105288	61836	34896
0	105294	61836	34886
0	105300	61836	34876
0	105306	61836	34866
0	105312	61836	34856
0	105318	61836	34846
0	105324	61836	34836
0	105330	61836	34826
0	105336	61836	34816
0	105342	61836	34806
0	105348	61836	34796
0	105354	61836	34786
0	105360	61836	34776
0	105366	61836	34766
0	105372	61836	34756
0	105378	61836	34746
0	105384	61836	34736
0	105390	61836	34726
0	105396	61836	34716
0	105402	61836	34706
0	105408	61836	34696
0	105414	61836	34686
0	105420	61836	34676
0	105426	61836	34666
0	105432	61836	34656
0	105438	61836	34646
0	105444	61836	34636
0	105450	61836	34626
0	105456	61836	34616
0	105462	61836	34606
0	105468	61836	34596
0	105474	61836	34586
0	105480	61836	34576
0	105486	61836	34566
0	105492	61836	34556
0	105498	61836	34546
0	105504	61836	34536
0	105510	61836	34526
0	105516	61836	34516
0	105522	61836	34506
0	105528	61836	34496
0	105534	61836	34486
0	105540	61836	34476
0	105546	61836	34466
0	105552	61836	34456
0	105558	61836	34446
0	105564	61836	34436
0	105570	61836	34426
0	105576	61836	34416
0	105582	61836	34406
0	105588	61836	34396
0	105594	61836	34386
0	105600	61836	34376
0	105606	61836	34366
0	105612	61836	34356
0	105618	61836	34346
0	105624	61836	34336
0	105630	61836	34326
0	105636	61836	34316
0	105642	61836	34306
0	105648	61836	34296
0	105654	61836	34286
0	105660	61836	34276
0	105666	61836	34266
0	105672	61836	34256
0	105678	61836	34246
0	105684	61836	34236
0	105690	61836	34226
0	105696	61836	34216
0	105702	61836	34206
0	105708	61836	34196
0	105714	61836	34186
0	105720	61836	34176
0	105726	61836	34166
0	105732	61836	34156
0	105738	61836	34146
0	105744	61836	34136
0	105750	61836	34126
0	105756	61836	34116
0	105762	61836	34106
0	105768	61836	34096
0	105774	61836	34086
0	105780	61836	34076
0	105786	61836	34066
0	105792	61836	34056
0	105798	61836	34046
0	105804	61836	34036
0	105810	61836	34026
0	105816	61836	34016
0	105822	61836	34006
0	105828	61836	33996
0	105834	61836	33986
0	105840	61836	33976
0	105846	61836	33966
0	105852	61836	33956
0	105858	61836	33946
0	105864	61836	33936
0	105870	61836	33926
0	105876	61836	33916
0	105882	61836	33906
0	105888	61836	33896
0	105894	61836	33886
0	105900	61836	33876
0	105906	61836	33866
0	105912	61836	33856
0	105918	61836	33846
0	105924	61836	33836
0	105930	61836	33826
0	105936	61836	33816
0	105942	61836	33806
0	105948	61836	33796
0	105954	61836	33786
0	105960	61836	33776
0	105966	61836	33766
0	105972	61836	33756
0	105978	61836	33746
0	105984	61836	33736
0	105990	61836	33726
0	105996	61836	33716
0	106002	61836	33706
0	106008	61836	33696
0	106014	61836	33686
0	106020	61836	33676
0	106026	61836	33666
0	106032	61836	33656
0	106038	61836	33646
0	106044	61836	33636
0	106050	61836	33626
0	106056	61836	33616
0	106062	61836	33606
0	106068	61836	33596
0	106074	61836	33586
0	106080	61836	33576
0	106086	61836	33566
0	106092	61836	33556
0	106098	61836	33546
0	106104	61836	33536
0	106110	61836	33526
0	106116	61836	33516
0	106122	61836	33506
0	106128	61836	33496
0	106134	61836	33486
0	106140	61836	33476
0	106146	61836	33466
0	106152	61836	33456
0	106158	61836	33446
0	106164	61836	33436
0	106170	61836	33426
0	106176	61836	33416
0	106182	61836	33406
0	106188	61836	33396
0	106194	61836	33386
0	106200	61836	33376
0	106206	61836	33366
0	106212	61836	33356
0	106218	61836	33346
0	106224	61836	33336
0	106230	61836	33326
0	106236	61836	33316
0	106242	61836	33306
0	106248	61836	33296
0	106254	61836	33286
0	106260	61836	33276
0	106266	61836	33266
0	106272	61836	33256
0	106278	61836	33246
0	106284	61836	33236
0	106290	61836	33226
0	106296	61836	33216
0	106302	61836	33206
0	106308	61836	33196
0	106314	61836	33186
0	106320	61836	33176
0	106326	61836	33166
0	106332	61836	33156
0	106338	61836	33146
0	106344	61836	33136
0	106350	61836	33126
0	106356	61836	33116
0	106362	61836	33106
0	106368	61836	33096
0	106374	61836	33086
0	106380	61836	33076
0	106386	61836	33066
0	106392	61836	33056
0	106398	61836	33046
0	106404	61836	33036
0	106410	61836	33026
0	106416	61836	33016
0	106422	61836	33006
0	106428	61836	32996
0	106434	61836	32986
0	106440	61836	32976
0	106446	61836	32966
0	106452	61836	32956
0	106458	61836	32946
0	106464	61836	32936
0	106470	61836	32926
0	106476	61836	32916
0	106482	61836	32906
0	106488	61836	32896
0	106494	61836	32886
0	106500	61836	32876
0	106506	61836	32866
0	106512	61836	32856
0	106518	61836	32846
0	106524	61836	32836
0	106530	61836	32826
0	106536	61836	32816
0	106542	61836	32806
0	106548	61836	32796
0	106554	61836	32786
0	106560	61836	32776
0	106566	61836	32766
0	106572	61836	32756
0	106578	61836	32746
0	106584	61836	32736
0	106590	61836	32726
0	106596	61836	32716
0	106602	61836	32706
0	106608	61836	32696
0	106614	61836	32686
0	106620	61836	32676
0	106626	61836	32666
0	106632	61836	32656
0	106638	61836	32646
0	106644	61836	32636
0	106650	61836	32626
0	106656	61836	32616
0	106662	61836	32606
0	106668	61836	32596
0	106674	61836	32586
0	106680	61836	32576
0	106686	61836	32566
0	106692	61836	32556
0	106698	61836	32546
0	106704	61836	32536
0	106710	61836	32526
0	106716	61836	32516
0	106722	61836	32506
0	106728	61836	32496
0	106734	61836	32486
0	106740	61836	32476
0	106746	61836	32466
0	106752	61836	32456
0	106758	61836	32446
0	106764	61836	32436
0	106770	61836	32426
0	106776	61836	32416
0	106782	61836	32406
0	106788	61836	32396
0	106794	61836	32386
0	106800	61836	32376
0	106806	61836	32366
0	106812	61836	32356
0	106818	61836	32346
0	106824	61836	32336
0	106830	61836	32326
0	106836	61836	32316
0	106842	61836	32306
0	106848	61836	32296
0	106854	61836	32286
0	106860	61836	32276
0	106866	61836	32266
0	106872	61836	32256
0	106878	61836	32246
0	106884	61836	32236
0	106890	61836	32226
0	106896	61836	32216
0	106902	61836	32206
0	106908	61836	32196
0	106914	61836	32186
0	106920	61836	32176
0	106926	61836	32166
0	106932	61836	32156
0	106938	61836	32146
0	106944	61836	32136
0	106950	61836	32126
0	106956	61836	32116
0	106962	61836	32106
0	106968	61836	32096
0	106974	61836	32086
0	106980	61836	32076
0	106986	61836	32066
0	106992	61836	32056
0	106998	61836	32046
0	107004	61836	32036
0	107010	61836	32026
0	107016	61836	32016
0	107022	61836	32006
0	107028	61836	31996
0	107034	61836	31986
0	107040	61836	31976
0	107046	61836	31966
0	107052	61836	31956
0	107058	61836	31946
0	107064	61836	31936
0	107070	61836	31926
0	107076	61836	31916
0	107082	61836	31906
0	107088	61836	31896
0	107094	61836	31886
0	107100	61836	31876
0	107106	61836	31866
0	107112	61836	31856
0	107118	61836	31846
0	107124	61836	31836
0	107130	61836	31826
0	107136	61836	31816
0	107142	61836	31806
0	107148	61836	31796
0	107154	61836	31786
0	107160	61836	31776
0	107166	61836	31766
0	107172	61836	31756
0	107178	61836	31746
0	107184	61836	31736
0	107190	61836	31726
0	107196	61836	31716
0	107202	61836	31706
0	107208	61836	31696
0	107214	61836	31686
0	107220	61836	31676
0	107226	61836	31666
0	107232	61836	31656
0	107238	61836	31646
0	107244	61836	31636
0	107250	61836	31626
0	107256	61836	31616
0	107262	61836	31606
0	107268	61836	31596
0	107274	61836	31586
0	107280	61836	31576
0	107286	61836	31566
0	107292	61836	31556
0	107298	61836	31546
0	107304	61836	31536
0	107310	61836	31526
0	107316	61836	31516
0	107322	61836	31506
0	107328	61836	31496
0	107334	61836	31486
0	107340	61836	31476
0	107346	61836	31466
0	107352	61836	31456
0	107358	61836	31446
0	107364	61836	31436
0	107370	61836	31426
0	107376	61836	31416
0	107382	61836	31406
0	107388	61836	31396
0	107394	61836	31386
0	107400	61836	31376
0	107406	61836	31366
0	107412	61836	31356
0	107418	61836	31346
0	107424	61836	31336
0	107430	61836	31326
0	107436	61836	31316
0	107442	61836	31306
0	107448	61836	31296
0	107454	61836	31286
0	107460	61836	31276
0	107466	61836	31266
0	107472	61836	31256
0	107478	61836	31246
0	107484	61836	31236
0	107490	61836	31226
0	107496	61836	31216
0	107502	61836	31206
0	107508	61836	31196
0	107514	61836	31186
0	107520	61836	31176
0	107526	61836	31166
0	107532	61836	31156
0	107538	61836	31146
0	107544	61836	31136
0	107550	61836	31126
0	107556	61836	31116
0	107562	61836	31106
0	107568	61836	31096
0	107574	61836	31086
0	107580	61836	31076
0	107586	61836	31066
0	107592	61836	31056
0	107598	61836	31046
0	107604	61836	31036
0	107610	61836	31026
0	107616	61836	31016
0	107622	61836	31006
0	107628	61836	30996
0	107634	61836	30986
0	107640	61836	30976
0	107646	61836	30966
0	107652	61836	30956
0	107658	61836	30946
0	107664	61836	30936
0	107670	61836	30926
0	107676	61836	30916
0	107682	61836	30906
0	107688	61836	30896
0	107694	61836	30886
0	107700	61836	30876
0	107706	61836	30866
0	107712	61836	30856
0	107718	61836	30846
0	107724	61836	30836
0	107730	61836	30826
0	107736	61836	30816
0	107742	61836	30806
0	107748	61836	30796
0	107754	61836	30786
0	107760	61836	30776
0	107766	61836	30766
0	107772	61836	30756
0	107778	61836	30746
0	107784	61836	30736
0	107790	61836	30726
0	107796	61836	30716
0	107802	61836	30706
0	107808	61836	30696
0	107814	61836	30686
0	107820	61836	30676
0	107826	61836	30666
0	107832	61836	30656
0	107838	61836	30646
0	107844	61836	30636
0	107850	61836	30626
0	107856	61836	30616
0	107862	61836	30606
0	107868	61836	30596
0	107874	61836	30586
0	107880	61836	30576
0	107886	61836	30566
0	107892	61836	30556
0	107898	61836	30546
0	107904	61836	30536
0	107910	61836	30526
0	107916	61836	30516
0	107922	61836	30506
0	107928	61836	30496
0	107934	61836	30486
0	107940	61836	30476
0	107946	61836	30466
0	107952	61836	30456
0	107958	61836	30446
0	107964	61836	30436
0	107970	61836	30426
0	107976	61836	30416
0	107982	61836	30406
0	107988	61836	30396
0	107994	61836	30386
0	108000	61836	30376
0	108006	61836	30366
0	108012	61836	30356
0	108018	61836	30346
0	108024	61836	30336
0	108030	61836	30326
0	108036	61836	30316
0	108042	61836	30306
0	108048	61836	30296
0	108054	61836	30286
0	108060	61836	30276
0	108066	61836	30266
0	108072	61836	30256
0	108078	61836	30246
0	108084	61836	30236
0	108090	61836	30226
0	108096	61836	30216
0	108102	61836	30206
0	108108	61836	30196
0	108114	61836	30186
0	108120	61836	30176
0	108126	61836	30166
0	108132	61836	30156
0	108138	61836	30146
0	108144	61836	30136
0	108150	61836	30126
0	108156	61836	30116
0	108162	61836	30106
0	108168	61836	30096
0	108174	61836	30086
0	108180	61836	30076
0	108186	61836	30066
0	108192	61836	30056
0	108198	61836	30046
0	108204	61836	30036
0	108210	61836	30026
0	108216	61836	30016
0	108222	61836	30006
0	108228	61836	29996
0	108234	61836	29986
0	108240	61836	29976
0	108246	61836	29966
0	108252	61836	29956
0	108258	61836	29946
0	108264	61836	29936
0	108270	61836	29926
0	108276	61836	29916
0	108282	61836	29906
0	108288	61836	29896
0	108294	61836	29886
0	108300	61836	29876
0	108306	61836	29866
0	108312	61836	29856
0	108318	61836	29846
0	108324	61836	29836
0	108330	61836	29826
0	108336	61836	29816
0	108342	61836	29806
0	108348	61836	29796
0	108354	61836	29786
0	108360	61836	29776
0	108366	61836	29766
0	108372	61836	29756
0	108378	61836	29746
0	108384	61836	29736
0	108390	61836	29726
0	108396	61836	29716
0	108402	61836	29706
0	108408	61836	29696
0	108414	61836	29686
0	108420	61836	29676
0	108426	61836	29666
0	108432	61836	29656
0	108438	61836	29646
0	108444	61836	29636
0	108450	61836	29626
0	108456	61836	29616
0	108462	61836	29606
0	108468	61836	29596
0	108474	61836	29586
0	108480	61836	29576
0	108486	61836	29566
0	108492	61836	29556
0	108498	61836	29546
0	108504	61836	29536
0	108510	61836	29526
0	108516	61836	29516
0	108522	61836	29506
0	108528	61836	29496
0	108534	61836	29486
0	108540	61836	29476
0	108546	61836	29466
0	108552	61836	29456
0	108558	61836	29446
0	108564	61836	29436
0	108570	61836	29426
0	108576	61836	29416
0	108582	61836	29406
0	108588	61836	29396
0	108594	61836	29386
0	108600	61836	29376
0	108606	61836	29366
0	108612	61836	29356
0	108618	61836	29346
0	108624	61836	29336
0	108630	61836	29326
0	108636	61836	29316
0	108642	61836	29306
0	108648	61836	29296
0	108654	61836	29286
0	108660	61836	29276
0	108666	61836	29266
0	108672	61836	29256
0	108678	61836	29246
0	108684	61836	29236
0	108690	61836	29226
0	108696	61836	29216
0	108702	61836	29206
0	108708	61836	29196
0	108714	61836	29186
0	108720	61836	29176
0	108726	61836	29166
0	108732	61836	29156
0	108738	61836	29146
0	108744	61836	29136
0	108750	61836	29126
0	108756	61836	29116
0	108762	61836	29106
0	108768	61836	29096
0	108774	61836	29086
0	108780	61836	29076
0	108786	61836	29066
0	108792	61836	29056
0	108798	61836	29046
0	108804	61836	29036
0	108810	61836	29026
0	108816	61836	29016
0	108822	61836	29006
0	108828	61836	28996
0	108834	61836	28986
0	108840	61836	28976
0	108846	61836	28966
0	108852	61836	28956
0	108858	61836	28946
0	108864	61836	28936
0	108870	61836	28926
0	108876	61836	28916
0	108882	61836	28906
0	108888	61836	28896
0	108894	61836	28886
0	108900	61836	28876
0	108906	61836	28866
0	108912	61836	28856
0	108918	61836	28846
0	108924	61836	28836
0	108930	61836	28826
0	108936	61836	28816
0	108942	61836	28806
0	108948	61836	28796
0	108954	61836	28786
0	108960	61836	28776
0	108966	61836	28766
0	108972	61836	28756
0	108978	61836	28746
0	108984	61836	28736
0	108990	61836	28726
0	108996	61836	28716
0	109002	61836	28706
0	109008	61836	28696
0	109014	61836	28686
0	109020	61836	28676
0	109026	61836	28666
0	109032	61836	28656
0	109038	61836	28646
0	109044	61836	28636
0	109050	61836	28626
0	109056	61836	28616
0	109062	61836	28606
0	109068	61836	28596
0	109074	61836	28586
0	109080	61836	28576
0	109086	61836	28566
0	109092	61836	28556
0	109098	61836	28546
0	109104	61836	28536
0	109110	61836	28526
0	109116	61836	28516
0	109122	61836	28506
0	109128	61836	28496
0	109134	61836	28486
0	109140	61836	28476
0	109146	61836	28466
0	109152	61836	28456
0	109158	61836	28446
0	109164	61836	28436
0	109170	61836	28426
0	109176	61836	28416
0	109182	61836	28406
0	109188	61836	28396
0	109194	61836	28386
0	109200	61836	28376
0	109206	61836	28366
0	109212	61836	28356
0	109218	61836	28346
0	109224	61836	28336
0	109230	61836	28326
0	109236	61836	28316
0	109242	61836	28306
0	109248	61836	28296
0	109254	61836	28286
0	109260	61836	28276
0	109266	61836	28266
0	109272	61836	28256
0	109278	61836	28246
0	109284	61836	28236
0	109290	61836	28226
0	109296	61836	28216
0	109302	61836	28206
0	109308	61836	28196
0	109314	61836	28186
0	109320	61836	28176
0	109326	61836	28166
0	109332	61836	28156
0	109338	61836	28146
0	109344	61836	28136
0	109350	61836	28126
0	109356	61836	28116
0	109362	61836	28106
0	109368	61836	28096
0	109374	61836	28086
0	109380	61836	28076
0	109386	61836	28066
0	109392	61836	28056
0	109398	61836	28046
0	109404	61836	28036
0	109410	61836	28026
0	109416	61836	28016
0	109422	61836	28006
0	109428	61836	27996
0	109434	61836	27986
0	109440	61836	27976
0	109446	61836	27966
0	109452	61836	27956
0	109458	61836	27946
0	109464	61836	27936
0	109470	61836	27926
0	109476	61836	27916
0	109482	61836	27906
0	109488	61836	27896
0	109494	61836	27886
0	109500	61836	27876
0	109506	61836	27866
0	109512	61836	27856
0	109518	61836	27846
0	109524	61836	27836
0	109530	61836	27826
0	109536	61836	27816
0	109542	61836	27806
0	109548	61836	27796
0	109554	61836	27786
0	109560	61836	27776
0	109566	61836	27766
0	109572	61836	27756
0	109578	61836	27746
0	109584	61836	27736
0	109590	61836	27726
0	109596	61836	27716
0	109602	61836	27706
0	109608	61836	27696
0	109614	61836	27686
0	109620	61836	27676
0	109626	61836	27666
0	109632	61836	27656
0	109638	61836	27646
0	109644	61836	27636
0	109650	61836	27626
0	109656	61836	27616
0	109662	61836	27606
0	109668	61836	27596
0	109674	61836	27586
0	109680	61836	27576
0	109686	61836	27566
0	109692	61836	27556
0	109698	61836	27546
0	109704	61836	27536
0	109710	61836	27526
0	109716	61836	27516
0	109722	61836	27506
0	109728	61836	27496
0	109734	61836	27486
0	109740	61836	27476
0	109746	61836	27466
0	109752	61836	27456
0	109758	61836	27446
0	109764	61836	27436
0	109770	61836	27426
0	109776	61836	27416
0	109782	61836	27406
0	109788	61836	27396
0	109794	61836	27386
0	109800	61836	27376
0	109806	61836	27366
0	109812	61836	27356
0	109818	61836	27346
0	109824	61836	27336
0	109830	61836	27326
0	109836	61836	27316
0	109842	61836	27306
0	109848	61836	27296
0	109854	61836	27286
0	109860	61836	27276
0	109866	61836	27266
0	109872	61836	27256
0	109878	61836	27246
0	109884	61836	27236
0	109890	61836	27226
0	109896	61836	27216
0	109902	61836	27206
0	109908	61836	27196
0	109914	61836	27186
0	109920	61836	27176
0	109926	61836	27166
0	109932	61836	27156
0	109938	61836	27146
0	109944	61836	27136
0	109950	61836	27126
0	109956	61836	27116
0	109962	61836	27106
0	109968	61836	27096
0	109974	61836	27086
0	109980	61836	27076
0	109986	61836	27066
0	109992	61836	27056
0	109998	61836	27046
0	110004	61836	27036
0	110010	61836	27026
0	110016	61836	27016
0	110022	61836	27006
0	110028	61836	26996
0	110034	61836	26986
0	110040	61836	26976
0	110046	61836	26966
0	110052	61836	26956
0	110058	61836	26946
0	110064	61836	26936
0	110070	61836	26926
0	110076	61836	26916
0	110082	61836	26906
0	110088	61836	26896
0	110094	61836	26886
0	110100	61836	26876
0	110106	61836	26866
0	110112	61836	26856
0	110118	61836	26846
0	110124	61836	26836
0	110130	61836	26826
0	110136	61836	26816
0	110142	61836	26806
0	110148	61836	26796
0	110154	61836	26786
0	110160	61836	26776
0	110166	61836	26766
0	110172	61836	26756
0	110178	61836	26746
0	110184	61836	26736
0	110190	61836	26726
0	110196	61836	26716
0	110202	61836	26706
0	110208	61836	26696
0	110214	61836	26686
0	110220	61836	26676
0	110226	61836	26666
0	110232	61836	26656
0	110238	61836	26646
0	110244	61836	26636
0	110250	61836	26626
0	110256	61836	26616
0	110262	61836	26606
0	110268	61836	26596
0	110274	61836	26586
0	110280	61836	26576
0	110286	61836	26566
0	110292	61836	26556
0	110298	61836	26546
0	110304	61836	26536
0	110310	61836	26526
0	110316	61836	26516
0	110322	61836	26506
0	110328	61836	26496
0	110334	61836	26486
0	110340	61836	26476
0	110346	61836	26466
0	110352	61836	26456
0	110358	61836	26446
0	110364	61836	26436
0	110370	61836	26426
0	110376	61836	26416
0	110382	61836	26406
0	110388	61836	26396
0	110394	61836	26386
0	110400	61836	26376
0	110406	61836	26366
0	110412	61836	26356
0	110418	61836	26346
0	110424	61836	26336
0	110430	61836	26326
0	110436	61836	26316
0	110442	61836	26306
0	110448	61836	26296
0	110454	61836	26286
0	110460	61836	26276
0	110466	61836	26266
0	110472	61836	26256
0	110478	61836	26246
0	110484	61836	26236
0	110490	61836	26226
0	110496	61836	26216
0	110502	61836	26206
0	110508	61836	26196
0	110514	61836	26186
0	110520	61836	26176
0	110526	61836	26166
0	110532	61836	26156
0	110538	61836	26146
0	110544	61836	26136
0	110550	61836	26126
0	110556	61836	26116
0	110562	61836	26106
0	110568	61836	26096
0	110574	61836	26086
0	110580	61836	26076
0	110586	61836	26066
0	110592	61836	26056
0	110598	61836	26046
0	110604	61836	26036
0	110610	61836	26026
0	110616	61836	26016
0	110622	61836	26006
0	110628	61836	25996
0	110634	61836	25986
0	110640	61836	25976
0	110646	61836	25966
0	110652	61836	25956
0	110658	61836	25946
0	110664	61836	25936
0	110670	61836	25926
0	110676	61836	25916
0	110682	61836	25906
0	110688	61836	25896
0	110694	61836	25886
0	110700	61836	25876
0	110706	61836	25866
0	110712	61836	25856
0	110718	61836	25846
0	110724	61836	25836
0	110730	61836	25826
0	110736	61836	25816
0	110742	61836	25806
0	110748	61836	25796
0	110754	61836	25786
0	110760	61836	25776
0	110766	61836	25766
0	110772	61836	25756
0	110778	61836	25746
0	110784	61836	25736
0	110790	61836	25726
0	110796	61836	25716
0	110802	61836	25706
0	110808	61836	25696
0	110814	61836	25686
0	110820	61836	25676
0	110826	61836	25666
0	110832	61836	25656
0	110838	61836	25646
0	110844	61836	25636
0	110850	61836	25626
0	110856	61836	25616
0	110862	61836	25606
0	110868	61836	25596
0	110874	61836	25586
0	110880	61836	25576
0	110886	61836	25566
0	110892	61836	25556
0	110898	61836	25546
0	110904	61836	25536
0	110910	61836	25526
0	110916	61836	25516
0	110922	61836	25506
0	110928	61836	25496
0	110934	61836	25486
0	110940	61836	25476
0	110946	61836	25466
0	110952	61836	25456
0	110958	61836	25446
0	110964	61836	25436
0	110970	61836	25426
0	110976	61836	25416
0	110982	61836	25406
0	110988	61836	25396
0	110994	61836	25386
0	111000	61836	25376
0	111006	61836	25366
0	111012	61836	25356
0	111018	61836	25346
0	111024	61836	25336
0	111030	61836	25326
0	111036	61836	25316
0	111042	61836	25306
0	111048	61836	25296
0	111054	61836	25286
0	111060	61836	25276
0	111066	61836	25266
0	111072	61836	25256
0	111078	61836	25246
0	111084	61836	25236
0	111090	61836	25226
0	111096	61836	25216
0	111102	61836	25206
0	111108	61836	25196
0	111114	61836	25186
0	111120	61836	25176
0	111126	61836	25166
0	111132	61836	25156
0	111138	61836	25146
0	111144	61836	25136
0	111150	61836	25126
0	111156	61836	25116
0	111162	61836	25106
0	111168	61836	25096
0	111174	61836	25086
0	111180	61836	25076
0	111186	61836	25066
0	111192	61836	25056
0	111198	61836	25046
0	111204	61836	25036
0	111210	61836	25026
0	111216	61836	25016
0	111222	61836	25006
0	111228	61836	24996
0	111234	61836	24986
0	111240	61836	24976
0	111246	61836	24966
0	111252	61836	24956
0	111258	61836	24946
0	111264	61836	24936
0	111270	61836	24926
0	111276	61836	24916
0	111282	61836	24906
0	111288	61836	24896
0	111294	61836	24886
0	111300	61836	24876
0	111306	61836	24866
0	111312	61836	24856
0	111318	61836	24846
0	111324	61836	24836
0	111330	61836	24826
0	111336	61836	24816
0	111342	61836	24806
0	111348	61836	24796
0	111354	61836	24786
0	111360	61836	24776
0	111366	61836	24766
0	111372	61836	24756
0	111378	61836	24746
0	111384	61836	24736
0	111390	61836	24726
0	111396	61836	24716
0	111402	61836	24706
0	111408	61836	24696
0	111414	61836	24686
0	111420	61836	24676
0	111426	61836	24666
0	111432	61836	24656
0	111438	61836	24646
0	111444	61836	24636
0	111450	61836	24626
0	111456	61836	24616
0	111462	61836	24606
0	111468	61836	24596
0	111474	61836	24586
0	111480	61836	24576
0	111486	61836	24566
0	111492	61836	24556
0	111498	61836	24546
0	111504	61836	24536
0	111510	61836	24526
0	111516	61836	24516
0	111522	61836	24506
0	111528	61836	24496
0	111534	61836	24486
0	111540	61836	24476
0	111546	61836	24466
0	111552	61836	24456
0	111558	61836	24446
0	111564	61836	24436
0	111570	61836	24426
0	111576	61836	24416
0	111582	61836	24406
0	111588	61836	24396
0	111594	61836	24386
0	111600	61836	24376
0	111606	61836	24366
0	111612	61836	24356
0	111618	61836	24346
0	111624	61836	24336
0	111630	61836	24326
0	111636	61836	24316
0	111642	61836	24306
0	111648	61836	24296
0	111654	61836	24286
0	111660	61836	24276
0	111666	61836	24266
0	111672	61836	24256
0	111678	61836	24246
0	111684	61836	24236
0	111690	61836	24226
0	111696	61836	24216
0	111702	61836	24206
0	111708	61836	24196
0	111714	61836	24186
0	111720	61836	24176
0	111726	61836	24166
0	111732	61836	24156
0	111738	61836	24146
0	111744	61836	24136
0	111750	61836	24126
0	111756	61836	24116
0	111762	61836	24106
0	111768	61836	24096
0	111774	61836	24086
0	111780	61836	24076
0	111786	61836	24066
0	111792	61836	24056
0	111798	61836	24046
[...]
0	149739	71770	2170
0	149745	71770	2160
0	149751	71770	2150
0	149757	71770	2140
0	149763	71770	2130
0	149769	71770	2120
0	149775	71770	2110
0	149781	71770	2100
0	149787	71770	2090
0	149793	71770	2080
0	149799	71770	2070
0	149805	71770	2060
0	149811	71770	2050
0	149817	71770	2040
0	149823	71770	2030
0	149829	71770	2020
0	149835	71770	2010
0	149841	71770	2000
0	149847	71770	1990
0	149853	71770	1980
0	149859	71770	1970
0	149865	71770	1960
0	149871	71770	1950
0	149877	71770	1940
0	149883	71770	1930
0	149889	71770	1920
0	149895	71770	1910
0	149901	71770	1900
0	149907	71770	1890
0	149913	71770	1880
0	149919	71770	1870
0	149925	71770	1860
0	149931	71770	1850
0	149937	71770	1840
0	149943	71770	1830
0	149949	71770	1820
0	149955	71770	1810
0	149961	71770	1800
0	149967	71770	1790
0	149973	71770	1780
0	149979	71770	1770
0	149985	71770	1760
0	149991	71770	1750
0	149997	71770	1740
0	150003	71770	1730
0	150009	71770	1720
0	150015	71770	1710
0	150021	71770	1700
0	150027	71770	1690
0	150033	71770	1680
0	150039	71770	1670
0	150045	71770	1660
0	150051	71770	1650
0	150057	71770	1640
0	150063	71770	1630
0	150069	71770	1620
0	150075	71770	1610
0	150081	71770	1600
0	150087	71770	1590
0	150093	71770	1580
0	150099	71770	1570
0	150105	71770	1560
0	150111	71770	1550
0	150117	71770	1540
0	150123	71770	1530
0	150129	71770	1520
0	150135	71770	1510
0	150141	71770	1500
0	150147	71770	1490
0	150153	71770	1480
0	150159	71770	1470
0	150165	71770	1460
0	150171	71770	1450
0	150177	71770	1440
0	150183	71770	1430
0	150189	71770	1420
0	150195	71770	1410
0	150201	71770	1400
0	150207	71770	1390
0	150213	71770	1380
0	150219	71770	1370
0	150225	71770	1360
0	150231	71770	1350
0	150237	71770	1340
0	150243	71770	1330
0	150249	71770	1320
0	150255	71770	1310
0	150261	71770	1300
0	150267	71770	1290
0	150273	71770	1280
0	150279	71770	1270
0	150285	71770	1260
0	150291	71770	1250
0	150297	71770	1240
0	150303	71770	1230
0	150309	71770	1220
0	150315	71770	1210
0	150321	71770	1200
0	150327	71770	1190
0	150333	71770	1180
0	150339	71770	1170
0	150345	71770	1160
0	150351	71770	1150
0	150357	71770	1140
0	150363	71770	1130
0	150369	71770	1120
0	150375	71770	1110
0	150381	71770	1100
0	150387	71770	1090
0	150393	71770	1080
0	150399	71770	1070
0	150405	71770	1060
0	150411	71770	1050
0	150417	71770	1040
0	150423	71770	1030
0	150429	71770	1020
0	150435	71770	1010
0	150441	71770	1000
0	150447	71770	990
0	150453	71770	980
0	150459	71770	970
0	150465	71770	960
0	150471	71770	950
0	150477	71770	940
0	150483	71770	930
0	150489	71770	920
0	150495	71770	910
0	150501	71770	900
0	150507	71770	890
0	150513	71770	880
0	150519	71770	870
0	150525	71770	860
0	150531	71770	850
0	150537	71770	840
0	150543	71770	830
0	150549	71770	820
0	150555	71770	810
0	150561	71770	800
0	150567	71770	790
0	150573	71770	780
0	150579	71770	770
0	150585	71770	760
0	150591	71770	750
0	150597	71770	740
0	150603	71770	730
0	150609	71770	720
0	150615	71770	710
0	150621	71770	700
0	150627	71770	690
0	150633	71770	680
0	150639	71770	670
0	150645	71770	660
0	150651	71770	650
0	150657	71770	640
0	150663	71770	630
0	150669	71770	620
0	150675	71770	610
0	150681	71770	600
0	150687	71770	590
0	150693	71770	580
0	150699	71770	570
0	150705	71770	560
0	150711	71770	550
0	150717	71770	540
0	150723	71770	530
0	150729	71770	520
0	150735	71770	510
0	150741	71770	500
0	150747	71770	490
0	150753	71770	480
0	150763	71776	476
0	150794	71786	476
0	150825	71796	476
0	150856	71806	476
0	150887	71816	476
0	150918	71826	476
0	150949	71836	476
0	150980	71846	476
0	151011	71856	476
0	151042	71866	476
0	151073	71876	476
0	151104	71886	476
0	151135	71896	476
0	151166	71906	476
0	151197	71916	476
0	151228	71926	476
0	151259	71936	476
0	151290	71946	476
0	151321	71956	476
0	151352	71966	476
0	151385	71976	476
0	151416	71986	476
0	151447	71996	476
0	151478	72006	476
0	151509	72016	476
0	151540	72026	476
0	151571	72036	476
0	151602	72046	476
0	151635	72056	476
0	151667	72066	476
0	151699	72076	476
0	151731	72086	476
0	151763	72096	476
0	151797	72106	476
0	151830	72116	476
0	151865	72126	476
0	151901	72136	476
0	151936	72146	476
0	151971	72156	476
0	152006	72166	476
0	152043	72176	476
0	152081	72186	476
0	152120	72196	476
0	152163	72206	476
0	152203	72216	476
0	152241	72226	476
0	152281	72236	476
0	152319	72246	476
0	152362	72256	476
0	152401	72266	476
0	152442	72276	476
0	152485	72286	476
0	152526	72296	476
0	152567	72306	476
0	152608	72316	476
0	152651	72326	476
0	152693	72336	476
0	152735	72346	476
0	152779	72356	476
0	152821	72366	476
0	152863	72376	476
0	152905	72386	476
0	152951	72396	476
0	152994	72406	476
0	153037	72416	476
0	153080	72426	476
0	153123	72436	476
0	153166	72446	476
0	153209	72456	476
0	153256	72466	476
0	153301	72476	476
0	153346	72486	476
0	153391	72496	476
0	153436	72506	476
0	153481	72516	476
0	153526	72526	476
0	153571	72536	476
0	153620	72546	476
0	153667	72556	476
0	153714	72566	476
0	153763	72576	476
0	153811	72586	476
0	153859	72596	476
0	153907	72606	476
0	153955	72616	476
0	154003	72626	476
0	154051	72636	476
0	154102	72646	476
0	154154	72656	476
0	154204	72666	476
0	154254	72676	476
0	154304	72686	476
0	154354	72696	476
0	154404	72706	476
0	154456	72716	476
0	154507	72726	476
0	154558	72736	476
0	154611	72746	476
0	154662	72756	476
0	154713	72766	476
0	154764	72776	476
0	154815	72786	476
0	154868	72796	476
0	154922	72806	476
0	154978	72816	476
0	155022	72826	476
0	155065	72836	476
0	155108	72846	476
0	155151	72856	476
0	155194	72866	476
0	155237	72876	476
0	155282	72886	476
0	155326	72896	476
0	155372	72906	476
0	155416	72916	476
0	155460	72926	476
0	155504	72936	476
0	155548	72946	476
0	155592	72956	476
0	155636	72966	476
0	155680	72976	476
0	155724	72986	476
0	155768	72996	476
0	155812	73006	476
0	155856	73016	476
0	155902	73026	476
0	155946	73036	476
0	155992	73046	476
0	156037	73056	476
0	156082	73066	476
0	156127	73076	476
0	156176	73086	476
0	156222	73096	476
0	156270	73106	476
0	156319	73116	476
0	156368	73126	476
0	156415	73136	476
0	156462	73146	476
0	156511	73156	476
0	156559	73166	476
0	156607	73176	476
0	156658	73186	476
0	156706	73196	476
0	156752	73206	476
0	156800	73216	476
0	156847	73226	476
0	156894	73236	476
0	156941	73246	476
0	156989	73256	476
0	157036	73266	476
0	157083	73276	476
0	157130	73286	476
0	157177	73296	476
0	157224	73306	476
0	157271	73316	476
0	157318	73326	476
0	157367	73336	476
0	157417	73346	476
0	157465	73356	476
0	157513	73366	476
0	157561	73376	476
0	157609	73386	476
0	157657	73396	476
0	157705	73406	476
0	157753	73416	476
0	157801	73426	476
0	157849	73436	476
0	157897	73446	476
0	157947	73456	476
0	157995	73466	476
0	158043	73476	476
0	158091	73486	476
0	158139	73496	476
0	158189	73506	476
0	158237	73516	476
0	158286	73526	476
0	158335	73536	476
0	158384	73546	476
0	158433	73556	476
0	158482	73566	476
0	158533	73576	476
0	158584	73586	476
0	158635	73596	476
0	158685	73606	476
0	158735	73616	476
0	158787	73626	476
0	158838	73636	476
0	158889	73646	476
0	158940	73656	476
0	160961	74146	956
0	160981	74146	946
0	160987	74146	936
0	160993	74146	926
0	160999	74146	916
0	161005	74146	906
0	161011	74146	896
0	161017	74146	886
0	161023	74146	876
0	161029	74146	866
0	161035	74146	856
0	161041	74146	846
0	161047	74146	836
0	161053	74146	826
0	161059	74146	816
0	161065	74146	806
0	161071	74146	796
0	161077	74146	786
0	161083	74146	776
0	161089	74146	766
0	161095	74146	756
0	161101	74146	746
0	161107	74146	736
0	161113	74146	726
0	161119	74146	716
0	161125	74146	706
0	161131	74146	696
0	161137	74146	686
0	161143	74146	676
0	161149	74146	666
0	161155	74146	656
0	161161	74146	646
0	161167	74146	636
0	161173	74146	626
0	161179	74146	616
0	161185	74146	606
0	161191	74146	596
0	161197	74146	586
0	161203	74146	576
0	161209	74146	566
0	161215	74146	556
0	161221	74146	546
0	161227	74146	536
0	161233	74146	526
0	161239	74146	516
0	161245	74146	506
0	161251	74146	496
0	161257	74146	486
0	161263	74146	476
0	161310	74156	476
0	161375	74166	476
0	161439	74176	476
0	161501	74186	476
0	161564	74196	476
0	161629	74206	476
0	161692	74216	476
0	161758	74226	476
0	161822	74236	476
0	161886	74246	476
0	161950	74256	476
0	162016	74266	476
0	162080	74276	476
0	162144	74286	476
0	162208	74296	476
0	162274	74306	476
0	162345	74316	476
0	162415	74326	476
0	162483	74336	476
0	162551	74346	476
0	162619	74356	476
0	162687	74366	476
0	162759	74376	476
0	162828	74386	476
0	162901	74396	476
0	162970	74406	476
0	163039	74416	476
0	163108	74426	476
0	163177	74436	476
0	163250	74446	476
0	163319	74456	476
0	163388	74466	476
0	163456	74476	476
0	163524	74486	476
0	163592	74496	476
0	163660	74506	476
0	163728	74516	476
0	163796	74526	476
0	163871	74536	476
0	163941	74546	476
0	164011	74556	476
0	164083	74566	476
0	164153	74576	476
0	164225	74586	476
0	164295	74596	476
0	164365	74606	476
0	164435	74616	476
0	164505	74626	476
0	164575	74636	476
0	164645	74646	476
0	164715	74656	476
0	164785	74666	476
0	164855	74676	476
0	164926	74686	476
0	164999	74696	476
0	165071	74706	476
0	165141	74716	476
0	165213	74726	476
0	165283	74736	476
0	165353	74746	476
0	165423	74756	476
0	165493	74766	476
0	165566	74776	476
0	165641	74786	476
0	165714	74796	476
0	165789	74806	476
0	165862	74816	476
0	165937	74826	476
0	166010	74836	476
0	166083	74846	476
0	166156	74856	476
0	166229	74866	476
0	166305	74876	476
0	166379	74886	476
0	166455	74896	476
0	166529	74906	476
0	166606	74916	476
0	166681	74926	476
0	166756	74936	476
0	166831	74946	476
0	166906	74956	476
0	166981	74966	476
0	167057	74976	476
0	167133	74986	476
0	167209	74996	476
0	167284	75006	476
0	167360	75016	476
0	167435	75026	476
0	167512	75036	476
0	167590	75046	476
0	167666	75056	476
0	167742	75066	476
0	167820	75076	476
0	167896	75086	476
0	167974	75096	476
0	168054	75106	476
0	168132	75116	476
0	168212	75126	476
0	168291	75136	476
0	168372	75146	476
0	168452	75156	476
0	168532	75166	476
0	168612	75176	476
0	168692	75186	476
0	168772	75196	476
0	168855	75206	476
0	168937	75216	476
0	169018	75226	476
0	169099	75236	476
0	169180	75246	476
0	169263	75256	476
0	169347	75266	476
0	169433	75276	476
0	169525	75286	476
0	169612	75296	476
0	169696	75306	476
0	169780	75316	476
0	169864	75326	476
0	169948	75336	476
0	170034	75346	476
0	170119	75356	476
0	170204	75366	476
0	170290	75376	476
0	170374	75386	476
0	170462	75396	476
0	170547	75406	476
0	170632	75416	476
0	170717	75426	476
0	170802	75436	476
0	170887	75446	476
0	170975	75456	476
0	171062	75466	476
0	171147	75476	476
0	171234	75486	476
0	171319	75496	476
0	171406	75506	476
0	171490	75516	476
0	171574	75526	476
0	171658	75536	476
0	171742	75546	476
0	171831	75556	476
0	171918	75566	476
0	172004	75576	476
0	172090	75586	476
0	172176	75596	476
0	172262	75606	476
0	172352	75616	476
0	172438	75626	476
0	172524	75636	476
0	172609	75646	476
0	172699	75656	476
0	172787	75666	476
0	172874	75676	476
0	172961	75686	476
0	173049	75696	476
0	173137	75706	476
0	173223	75716	476
0	173309	75726	476
0	173395	75736	476
0	173481	75746	476
0	173567	75756	476
0	173656	75766	476
0	173740	75776	476
0	173825	75786	476
0	173909	75796	476
0	173993	75806	476
0	174082	75816	476
0	174171	75826	476
0	174257	75836	476
0	174345	75846	476
0	174431	75856	476
0	174518	75866	476
0	174605	75876	476
0	174690	75886	476
0	174775	75896	476
0	174860	75906	476
0	174945	75916	476
0	175029	75926	476
0	175113	75936	476
0	175197	75946	476
0	175281	75956	476
0	175365	75966	476
0	175451	75976	476
0	175536	75986	476
0	175620	75996	476
0	175704	76006	476
0	175788	76016	476
0	175872	76026	476
0	175956	76036	476
0	176040	76046	476
0	176124	76056	476
0	176208	76066	476
0	176294	76076	476
0	176378	76086	476
0	176464	76096	476
0	176547	76106	476
0	176633	76116	476
0	176716	76126	476
0	176799	76136	476
0	176883	76146	476
0	176966	76156	476
0	177049	76166	476
0	177134	76176	476
0	177221	76186	476
0	177306	76196	476
0	177389	76206	476
0	177474	76216	476
0	177557	76226	476
0	177640	76236	476
0	182090	77166	1396
0	182118	77166	1386
0	182124	77166	1376
0	182130	77166	1366
0	182136	77166	1356
0	182142	77166	1346
0	182148	77166	1336
0	182154	77166	1326
0	182160	77166	1316
0	182166	77166	1306
0	182172	77166	1296
0	182178	77166	1286
0	182184	77166	1276
0	182190	77166	1266
0	182196	77166	1256
0	182202	77166	1246
0	182208	77166	1236
0	182214	77166	1226
0	182220	77166	1216
0	182226	77166	1206
0	182232	77166	1196
0	182238	77166	1186
0	182244	77166	1176
0	182250	77166	1166
0	182256	77166	1156
0	182262	77166	1146
0	182268	77166	1136
0	182274	77166	1126
0	182280	77166	1116
0	182286	77166	1106
0	182292	77166	1096
0	182298	77166	1086
0	182304	77166	1076
0	182310	77166	1066
0	182316	77166	1056
0	182322	77166	1046
0	182328	77166	1036
0	182334	77166	1026
0	182340	77166	1016
0	182346	77166	1006
0	182352	77166	996
0	182358	77166	986
0	182364	77166	976
0	182370	77166	966
0	182376	77166	956
0	182382	77166	946
0	182388	77166	936
0	182394	77166	926
0	182400	77166	916
0	182406	77166	906
0	182412	77166	896
0	182418	77166	886
0	182424	77166	876
0	182430	77166	866
0	182436	77166	856
0	182442	77166	846
0	182448	77166	836
0	182454	77166	826
0	182460	77166	816
0	182466	77166	806
0	182472	77166	796
0	182478	77166	786
0	182484	77166	776
0	182490	77166	766
0	182496	77166	756
0	182502	77166	746
0	182508	77166	736
0	182514	77166	726
0	182520	77166	716
0	182526	77166	706
0	182532	77166	696
0	182538	77166	686
0	182544	77166	676
0	182550	77166	666
0	182556	77166	656
0	182562	77166	646
0	182568	77166	636
0	182574	77166	626
0	182580	77166	616
0	182586	77166	606
0	182592	77166	596
0	182598	77166	586
0	182604	77166	576
0	182610	77166	566
0	182616	77166	556
0	182622	77166	546
0	182628	77166	536
0	182634	77166	526
0	182640	77166	516
0	182646	77166	506
0	182652	77166	496
0	182658	77166	486
0	182664	77166	476
0	182716	77176	476
0	182788	77186	476
0	182859	77196	476
0	182930	77206	476
0	183001	77216	476
0	183072	77226	476
0	183143	77236	476
0	183214	77246	476
0	183285	77256	476
0	183356	77266	476
0	183427	77276	476
0	183497	77286	476
0	183567	77296	476
0	183637	77306	476
0	183707	77316	476
0	183777	77326	476
0	183847	77336	476
0	183917	77346	476
0	183987	77356	476
0	184057	77366	476
0	184128	77376	476
0	184198	77386	476
0	184268	77396	476
0	184337	77406	476
0	184407	77416	476
0	184475	77426	476
0	184543	77436	476
0	184615	77446	476
0	184684	77456	476
0	184753	77466	476
0	184822	77476	476
0	184892	77486	476
0	184961	77496	476
0	185032	77506	476
0	185101	77516	476
0	185173	77526	476
0	185247	77536	476
0	185321	77546	476
0	185394	77556	476
0	185466	77566	476
0	185539	77576	476
0	185611	77586	476
0	185685	77596	476
0	185756	77606	476
0	185827	77616	476
0	185900	77626	476
0	185973	77636	476
0	186046	77646	476
0	188686	78286	1106
0	188710	78286	1096
0	188716	78286	1086
0	188722	78286	1076
0	188728	78286	1066
0	188734	78286	1056
0	188740	78286	1046
0	188746	78286	1036
0	188752	78286	1026
0	188758	78286	1016
0	188764	78286	1006
0	188770	78286	996
0	188776	78286	986
0	188782	78286	976
0	188788	78286	966
0	188794	78286	956
0	188800	78286	946
0	188806	78286	936
0	188812	78286	926
0	188818	78286	916
0	188824	78286	906
0	188830	78286	896
0	188836	78286	886
0	188842	78286	876
0	188848	78286	866
0	188854	78286	856
0	188860	78286	846
0	188866	78286	836
0	188872	78286	826
0	188878	78286	816
0	188884	78286	806
0	188890	78286	796
0	188896	78286	786
0	188902	78286	776
0	188908	78286	766
0	188914	78286	756
0	188920	78286	746
0	188926	78286	736
0	188932	78286	726
0	188938	78286	716
0	188944	78286	706
0	188950	78286	696
0	188956	78286	686
0	188962	78286	676
0	188968	78286	666
0	188974	78286	656
0	188980	78286	646
0	188986	78286	636
0	188992	78286	626
0	188998	78286	616
0	189004	78286	606
0	189010	78286	596
0	189016	78286	586
0	189022	78286	576
0	189028	78286	566
0	189034	78286	556
0	189040	78286	546
0	189046	78286	536
0	189052	78286	526
0	189058	78286	516
0	189064	78286	506
0	189070	78286	496
0	189076	78286	486
0	189082	78286	476
0	189127	78296	476
0	189188	78306	476
0	189247	78316	476
0	189306	78326	476
0	189366	78336	476
0	189425	78346	476
0	189485	78356	476
0	189543	78366	476
0	189601	78376	476
0	189659	78386	476
0	189717	78396	476
0	189775	78406	476
0	189833	78416	476
0	189893	78426	476
0	189952	78436	476
0	190008	78446	476
0	190064	78456	476
0	190123	78466	476
0	190181	78476	476
0	190239	78486	476
0	190299	78496	476
0	190356	78506	476
0	190413	78516	476
0	190474	78526	476
0	190530	78536	476
0	190586	78546	476
0	190642	78556	476
0	190698	78566	476
0	190753	78576	476
0	190808	78586	476
0	190864	78596	476
0	190921	78606	476
0	190978	78616	476
0	191033	78626	476
0	191086	78636	476
0	191143	78646	476
0	191197	78656	476
0	193252	79306	1116
0	193273	79306	1106
0	193279	79306	1096
0	193285	79306	1086
0	193291	79306	1076
0	193297	79306	1066
0	193303	79306	1056
0	193309	79306	1046
0	193315	79306	1036
0	193321	79306	1026
0	193327	79306	1016
0	193333	79306	1006
0	193339	79306	996
0	193345	79306	986
0	193351	79306	976
0	193357	79306	966
0	193363	79306	956
0	193369	79306	946
0	193375	79306	936
0	193381	79306	926
0	193387	79306	916
0	193393	79306	906
0	193399	79306	896
0	193405	79306	886
0	193411	79306	876
0	193417	79306	866
0	193423	79306	856
0	193429	79306	846
0	193435	79306	836
0	193441	79306	826
0	193447	79306	816
0	193453	79306	806
0	193459	79306	796
0	193465	79306	786
0	193471	79306	776
0	193477	79306	766
0	193483	79306	756
0	193489	79306	746
0	193495	79306	736
0	193501	79306	726
0	193507	79306	716
0	193513	79306	706
0	193519	79306	696
0	193525	79306	686
0	193531	79306	676
0	193537	79306	666
0	193543	79306	656
0	193549	79306	646
0	193555	79306	636
0	193561	79306	626
0	193567	79306	616
0	193573	79306	606
0	193579	79306	596
0	193585	79306	586
0	193591	79306	576
0	193597	79306	566
0	193603	79306	556
0	193609	79306	546
0	193615	79306	536
0	193621	79306	526
0	193627	79306	516
0	193633	79306	506
0	193639	79306	496
0	193645	79306	486
0	193651	79306	476
0	193685	79316	476
0	193732	79326	476
0	193779	79336	476
0	193829	79346	476
0	193876	79356	476
0	193923	79366	476
0	193972	79376	476
0	194019	79386	476
0	194066	79396	476
0	194113	79406	476
0	194160	79416	476
0	194207	79426	476
0	196216	80386	1426
0	196230	80386	1416
0	196236	80386	1406
0	196242	80386	1396
0	196248	80386	1386
0	196254	80386	1376
0	196260	80386	1366
0	196266	80386	1356
0	196272	80386	1346
0	196278	80386	1336
0	196284	80386	1326
0	196290	80386	1316
0	196296	80386	1306
0	196302	80386	1296
0	196308	80386	1286
0	196314	80386	1276
0	196320	80386	1266
0	196326	80386	1256
0	196332	80386	1246
0	196338	80386	1236
0	196344	80386	1226
0	196350	80386	1216
0	196356	80386	1206
0	196362	80386	1196
0	196368	80386	1186
0	196374	80386	1176
0	196380	80386	1166
0	196386	80386	1156
0	196392	80386	1146
0	196398	80386	1136
0	196404	80386	1126
0	196410	80386	1116
0	196416	80386	1106
0	196422	80386	1096
0	196428	80386	1086
0	196434	80386	1076
0	196440	80386	1066
0	196446	80386	1056
0	196452	80386	1046
0	196458	80386	1036
0	196464	80386	1026
0	196470	80386	1016
0	196476	80386	1006
0	196482	80386	996
0	196488	80386	986
0	196494	80386	976
0	196500	80386	966
0	196506	80386	956
0	196512	80386	946
0	196518	80386	936
0	196524	80386	926
0	196530	80386	916
0	196536	80386	906
0	196542	80386	896
0	196548	80386	886
0	196554	80386	876
0	196560	80386	866
0	196566	80386	856
0	196572	80386	846
0	196578	80386	836
0	196584	80386	826
0	196590	80386	816
0	196596	80386	806
0	196602	80386	796
0	196608	80386	786
0	196614	80386	776
0	196620	80386	766
0	196626	80386	756
0	196632	80386	746
0	196638	80386	736
0	196644	80386	726
0	196650	80386	716
0	196656	80386	706
0	196662	80386	696
0	196668	80386	686
0	196674	80386	676
0	196680	80386	666
0	196686	80386	656
0	196692	80386	646
0	196698	80386	636
0	196704	80386	626
0	196710	80386	616
0	196716	80386	606
0	196722	80386	596
0	196728	80386	586
0	196734	80386	576
0	196740	80386	566
0	196746	80386	556
0	196752	80386	546
0	196758	80386	536
0	196764	80386	526
0	196770	80386	516
0	196776	80386	506
0	196782	80386	496
0	196788	80386	486
0	196794	80386	476
0	196810	80396	476
0	196834	80406	476
0	196859	80416	476
0	196883	80426	476
0	196907	80436	476
0	196931	80446	476
0	196955	80456	476
0	196979	80466	476

