version 2
run General-0-20250117-04:36:24-185894
attr configname General
attr datetime 20250117-04:36:24
attr experiment General
attr inifile shaw_mine.ini
attr iterationvars ""
attr iterationvarsf ""
attr measurement ""
attr network src.dtnsim
attr processid 185894
attr repetition 0
attr replication #0
attr resultdir results
attr runnumber 0
attr seedset 0
param dtnsim.central.contactsFile "\"contactPlan/Contacts.txt\""
param dtnsim.central.contactsFile_A "\"contactPlan/Contacts.txt\""
param dtnsim.central.contactsFile_B "\"contactPlan/Contacts.txt\""
param dtnsim.central.contactIdsToDelete_from_celestialA "\"1 8 11 17 25 26 31 33 39 43 46 51 52 60 62 68 69 71 75 78 79 96 97 102 119 123 131 135 139 143 144 150 154 157 158 160 169 170 175 180 182 183 185 187 190 199 203 206 219 244 245 246 257 259 268 279 283 284 288 291 296 311 313 318 327 333 338 351 361 372 374 389 391 396 405 408 414 415 422 437 446 453 455 463 465 466 470 474 476 478 479\""
param dtnsim.central.contactIdsToDelete_from_celestialB "\"5 9 10 19 27 32 40 44 48 56 66 67 70 74 76 81 83 93 100 109 110 120 121 124 128 130 134 142 145 163 165 167 168 177 181 184 189 194 196 204 207 208 210 214 218 221 226 227 228 241 248 250 252 254 255 266 267 269 272 275 277 287 295 299 300 301 302 303 305 321 324 329 334 339 354 355 357 358 359 366 368 370 384 385 394 397 400 404 406 410 412 417 418 419 420 425 428 431 439 440 441 442 449 450 456 458 460 468 469\""
param dtnsim.central.celestialA_nodes "\"1 2 3\""
param dtnsim.central.celestialB_nodes "\"4 5 6\""
param dtnsim.central.locallyfaultsAware true
param dtnsim.central.mode_two_celestial true
param dtnsim.nodesNumber 6
param dtnsim.node[1].icon "\"receiverdish\""
param dtnsim.node[2..5].icon "\"satellite\""
param dtnsim.node[6].icon "\"receiverdish\""
param dtnsim.node[*].dtn.routing "\"cgrModel350\""
param dtnsim.node[*].dtn.routingType "\"routeListType:allPaths-firstEnding,volumeAware:allContacts,extensionBlock:on,contactPlan:global\""
param dtnsim.node[1].app.enable true
param dtnsim.node[1].app.bundlesNumber "\"8000\""
param dtnsim.node[1].app.start "\"0\""
param dtnsim.node[1].app.destinationEid "\"6\""
param dtnsim.node[1].app.size "\"1500\""
param dtnsim.node[1].app.interval 10

vector 0 dtnsim.node[6].app appBundleReceivedDelayvec:vector ETV
attr interpolationmode none
attr source appBundleReceivedDelay
attr title "appBundleReceivedDelayvec, vector"
0	89175	64098	64098
0	89181	64098	64088
0	89187	64098	64078
0	89193	64098	64068
0	89199	64098	64058
0	89205	64098	64048
0	89211	64098	64038
0	89217	64098	64028
0	89223	64098	64018
0	89229	64098	64008
0	89235	64098	63998
0	89241	64098	63988
0	89247	64098	63978
0	89253	64098	63968
0	89259	64098	63958
0	89265	64098	63948
0	89271	64098	63938
0	89277	64098	63928
0	89283	64098	63918
0	89289	64098	63908
0	89295	64098	63898
0	89301	64098	63888
0	89307	64098	63878
0	89313	64098	63868
0	89319	64098	63858
0	89325	64098	63848
0	89331	64098	63838
0	89337	64098	63828
0	89343	64098	63818
0	89349	64098	63808
0	89355	64098	63798
0	89361	64098	63788
0	89367	64098	63778
0	89373	64098	63768
0	89379	64098	63758
0	89385	64098	63748
0	89391	64098	63738
0	89397	64098	63728
0	89403	64098	63718
0	89409	64098	63708
0	89415	64098	63698
0	89421	64098	63688
0	89427	64098	63678
0	89433	64098	63668
0	89439	64098	63658
0	89445	64098	63648
0	89451	64098	63638
0	89457	64098	63628
0	89463	64098	63618
0	89469	64098	63608
0	89475	64098	63598
0	89481	64098	63588
0	89487	64098	63578
0	89493	64098	63568
0	89499	64098	63558
0	89505	64098	63548
0	89511	64098	63538
0	89517	64098	63528
0	89523	64098	63518
0	89529	64098	63508
0	89535	64098	63498
0	89541	64098	63488
0	89547	64098	63478
0	89553	64098	63468
0	89559	64098	63458
0	89565	64098	63448
0	89571	64098	63438
0	89577	64098	63428
0	89583	64098	63418
0	89589	64098	63408
0	89595	64098	63398
0	89601	64098	63388
0	89607	64098	63378
0	89613	64098	63368
0	89619	64098	63358
0	89625	64098	63348
0	89631	64098	63338
0	89637	64098	63328
0	89643	64098	63318
0	89649	64098	63308
0	89655	64098	63298
0	89661	64098	63288
0	89667	64098	63278
0	89673	64098	63268
0	89679	64098	63258
0	89685	64098	63248
0	89691	64098	63238
0	89697	64098	63228
0	89703	64098	63218
0	89709	64098	63208
0	89715	64098	63198
0	89721	64098	63188
0	89727	64098	63178
0	89733	64098	63168
0	89739	64098	63158
0	89745	64098	63148
0	89751	64098	63138
0	89757	64098	63128
0	89763	64098	63118
0	89769	64098	63108
0	89775	64098	63098
0	89781	64098	63088
0	89787	64098	63078
0	89793	64098	63068
0	89799	64098	63058
0	89805	64098	63048
0	89811	64098	63038
0	89817	64098	63028
0	89823	64098	63018
0	89829	64098	63008
0	89835	64098	62998
0	89841	64098	62988
0	89847	64098	62978
0	89853	64098	62968
0	89859	64098	62958
0	89865	64098	62948
0	89871	64098	62938
0	89877	64098	62928
0	89883	64098	62918
0	89889	64098	62908
0	89895	64098	62898
0	89901	64098	62888
0	89907	64098	62878
0	89913	64098	62868
0	89919	64098	62858
0	89925	64098	62848
0	89931	64098	62838
0	89937	64098	62828
0	89943	64098	62818
0	89949	64098	62808
0	89955	64098	62798
0	89961	64098	62788
0	89967	64098	62778
0	89973	64098	62768
0	89979	64098	62758
0	89985	64098	62748
0	89991	64098	62738
0	89997	64098	62728
0	90003	64098	62718
0	90009	64098	62708
0	90015	64098	62698
0	90021	64098	62688
0	90027	64098	62678
0	90033	64098	62668
0	90039	64098	62658
0	90045	64098	62648
0	90051	64098	62638
0	90057	64098	62628
0	90063	64098	62618
0	90069	64098	62608
0	90075	64098	62598
0	90081	64098	62588
0	90087	64098	62578
0	90093	64098	62568
0	90099	64098	62558
0	90105	64098	62548
0	90111	64098	62538
0	90117	64098	62528
0	90123	64098	62518
0	90129	64098	62508
0	90135	64098	62498
0	90141	64098	62488
0	90147	64098	62478
0	90153	64098	62468
0	90159	64098	62458
0	90165	64098	62448
0	90171	64098	62438
0	90177	64098	62428
0	90183	64098	62418
0	90189	64098	62408
0	90195	64098	62398
0	90201	64098	62388
0	90207	64098	62378
0	90213	64098	62368
0	90219	64098	62358
0	90225	64098	62348
0	90231	64098	62338
0	90237	64098	62328
0	90243	64098	62318
0	90249	64098	62308
0	90255	64098	62298
0	90261	64098	62288
0	90267	64098	62278
0	90273	64098	62268
0	90279	64098	62258
0	90285	64098	62248
0	90291	64098	62238
0	90297	64098	62228
0	90303	64098	62218
0	90309	64098	62208
0	90315	64098	62198
0	90321	64098	62188
0	90327	64098	62178
0	90333	64098	62168
0	90339	64098	62158
0	90345	64098	62148
0	90351	64098	62138
0	90357	64098	62128
0	90363	64098	62118
0	90369	64098	62108
0	90375	64098	62098
0	90381	64098	62088
0	90387	64098	62078
0	90393	64098	62068
0	90399	64098	62058
0	90405	64098	62048
0	90411	64098	62038
0	90417	64098	62028
0	90423	64098	62018
0	90429	64098	62008
0	90435	64098	61998
0	90441	64098	61988
0	90447	64098	61978
0	90453	64098	61968
0	90459	64098	61958
0	90465	64098	61948
0	90471	64098	61938
0	90477	64098	61928
0	90483	64098	61918
0	90489	64098	61908
0	90495	64098	61898
0	90501	64098	61888
0	90507	64098	61878
0	90513	64098	61868
0	90519	64098	61858
0	90525	64098	61848
0	90531	64098	61838
0	90537	64098	61828
0	90543	64098	61818
0	90549	64098	61808
0	90555	64098	61798
0	90561	64098	61788
0	90567	64098	61778
0	90573	64098	61768
0	90579	64098	61758
0	90585	64098	61748
0	90591	64098	61738
0	90597	64098	61728
0	90603	64098	61718
0	90609	64098	61708
0	90615	64098	61698
0	90621	64098	61688
0	90627	64098	61678
0	90633	64098	61668
0	90639	64098	61658
0	90645	64098	61648
0	90651	64098	61638
0	90657	64098	61628
0	90663	64098	61618
0	90669	64098	61608
0	90675	64098	61598
0	90681	64098	61588
0	90687	64098	61578
0	90693	64098	61568
0	90699	64098	61558
0	90705	64098	61548
0	90711	64098	61538
0	90717	64098	61528
0	90723	64098	61518
0	90729	64098	61508
0	90735	64098	61498
0	90741	64098	61488
0	90747	64098	61478
0	90753	64098	61468
0	90759	64098	61458
0	90765	64098	61448
0	90771	64098	61438
0	90777	64098	61428
0	90783	64098	61418
0	90789	64098	61408
0	90795	64098	61398
0	90801	64098	61388
0	90807	64098	61378
0	90813	64098	61368
0	90819	64098	61358
0	90825	64098	61348
0	90831	64098	61338
0	90837	64098	61328
0	90843	64098	61318
0	90849	64098	61308
0	90855	64098	61298
0	90861	64098	61288
0	90867	64098	61278
0	90873	64098	61268
0	90879	64098	61258
0	90885	64098	61248
0	90891	64098	61238
0	90897	64098	61228
0	90903	64098	61218
0	90909	64098	61208
0	90915	64098	61198
0	90921	64098	61188
0	90927	64098	61178
0	90933	64098	61168
0	90939	64098	61158
0	90945	64098	61148
0	90951	64098	61138
0	90957	64098	61128
0	90963	64098	61118
0	90969	64098	61108
0	90975	64098	61098
0	90981	64098	61088
0	90987	64098	61078
0	90993	64098	61068
0	90999	64098	61058
0	91005	64098	61048
0	91011	64098	61038
0	91017	64098	61028
0	91023	64098	61018
0	91029	64098	61008
0	91035	64098	60998
0	91041	64098	60988
0	91047	64098	60978
0	91053	64098	60968
0	91059	64098	60958
0	91065	64098	60948
0	91071	64098	60938
0	91077	64098	60928
0	91083	64098	60918
0	91089	64098	60908
0	91095	64098	60898
0	91101	64098	60888
0	91107	64098	60878
0	91113	64098	60868
0	91119	64098	60858
0	91125	64098	60848
0	91131	64098	60838
0	91137	64098	60828
0	91143	64098	60818
0	91149	64098	60808
0	91155	64098	60798
0	91161	64098	60788
0	91167	64098	60778
0	91173	64098	60768
0	91179	64098	60758
0	91185	64098	60748
0	91191	64098	60738
0	91197	64098	60728
0	91203	64098	60718
0	91209	64098	60708
0	91215	64098	60698
0	91221	64098	60688
0	91227	64098	60678
0	91233	64098	60668
0	91239	64098	60658
0	91245	64098	60648
0	91251	64098	60638
0	91257	64098	60628
0	91263	64098	60618
0	91269	64098	60608
0	91275	64098	60598
0	91281	64098	60588
0	91287	64098	60578
0	91293	64098	60568
0	91299	64098	60558
0	91305	64098	60548
0	91311	64098	60538
0	91317	64098	60528
0	91323	64098	60518
0	91329	64098	60508
0	91335	64098	60498
0	91341	64098	60488
0	91347	64098	60478
0	91353	64098	60468
0	91359	64098	60458
0	91365	64098	60448
0	91371	64098	60438
0	91377	64098	60428
0	91383	64098	60418
0	91389	64098	60408
0	91395	64098	60398
0	91401	64098	60388
0	91407	64098	60378
0	91413	64098	60368
0	91419	64098	60358
0	91425	64098	60348
0	91431	64098	60338
0	91437	64098	60328
0	91443	64098	60318
0	91449	64098	60308
0	91455	64098	60298
0	91461	64098	60288
0	91467	64098	60278
0	91473	64098	60268
0	91479	64098	60258
0	91485	64098	60248
0	91491	64098	60238
0	91497	64098	60228
0	91503	64098	60218
0	91509	64098	60208
0	91515	64098	60198
0	91521	64098	60188
0	91527	64098	60178
0	91533	64098	60168
0	91539	64098	60158
0	91545	64098	60148
0	91551	64098	60138
0	91557	64098	60128
0	91563	64098	60118
0	91569	64098	60108
0	91575	64098	60098
0	91581	64098	60088
0	91587	64098	60078
0	91593	64098	60068
0	91599	64098	60058
0	91605	64098	60048
0	91611	64098	60038
0	91617	64098	60028
0	91623	64098	60018
0	91629	64098	60008
0	91635	64098	59998
0	91641	64098	59988
0	91647	64098	59978
0	91653	64098	59968
0	91659	64098	59958
0	91665	64098	59948
0	91671	64098	59938
0	91677	64098	59928
0	91683	64098	59918
0	91689	64098	59908
0	91695	64098	59898
0	91701	64098	59888
0	91707	64098	59878
0	91713	64098	59868
0	91719	64098	59858
0	91725	64098	59848
0	91731	64098	59838
0	91737	64098	59828
0	91743	64098	59818
0	91749	64098	59808
0	91755	64098	59798
0	91761	64098	59788
0	91767	64098	59778
0	91773	64098	59768
0	91779	64098	59758
0	91785	64098	59748
0	91791	64098	59738
0	91797	64098	59728
0	91803	64098	59718
0	91809	64098	59708
0	91815	64098	59698
0	91821	64098	59688
0	91827	64098	59678
0	91833	64098	59668
0	91839	64098	59658
0	91845	64098	59648
0	91851	64098	59638
0	91857	64098	59628
0	91863	64098	59618
0	91869	64098	59608
0	91875	64098	59598
0	91881	64098	59588
0	91887	64098	59578
0	91893	64098	59568
0	91899	64098	59558
0	91905	64098	59548
0	91911	64098	59538
0	91917	64098	59528
0	91923	64098	59518
0	91929	64098	59508
0	91935	64098	59498
0	91941	64098	59488
0	91947	64098	59478
0	91953	64098	59468
0	91959	64098	59458
0	91965	64098	59448
0	91971	64098	59438
0	91977	64098	59428
0	91983	64098	59418
0	91989	64098	59408
0	91995	64098	59398
0	92001	64098	59388
0	92007	64098	59378
0	92013	64098	59368
0	92019	64098	59358
0	92025	64098	59348
0	92031	64098	59338
0	92037	64098	59328
0	92043	64098	59318
0	92049	64098	59308
0	92055	64098	59298
0	92061	64098	59288
0	92067	64098	59278
0	92073	64098	59268
0	92079	64098	59258
0	92085	64098	59248
0	92091	64098	59238
0	92097	64098	59228
0	92103	64098	59218
0	92109	64098	59208
0	92115	64098	59198
0	92121	64098	59188
0	92127	64098	59178
0	92133	64098	59168
0	92139	64098	59158
0	92145	64098	59148
0	92151	64098	59138
0	92157	64098	59128
0	92163	64098	59118
0	92169	64098	59108
0	92175	64098	59098
0	92181	64098	59088
0	92187	64098	59078
0	92193	64098	59068
0	92199	64098	59058
0	92205	64098	59048
0	92211	64098	59038
0	92217	64098	59028
0	92223	64098	59018
0	92229	64098	59008
0	92235	64098	58998
0	92241	64098	58988
0	92247	64098	58978
0	92253	64098	58968
0	92259	64098	58958
0	92265	64098	58948
0	92271	64098	58938
0	92277	64098	58928
0	92283	64098	58918
0	92289	64098	58908
0	92295	64098	58898
0	92301	64098	58888
0	92307	64098	58878
0	92313	64098	58868
0	92319	64098	58858
0	92325	64098	58848
0	92331	64098	58838
0	92337	64098	58828
0	92343	64098	58818
0	92349	64098	58808
0	92355	64098	58798
0	92361	64098	58788
0	92367	64098	58778
0	92373	64098	58768
0	92379	64098	58758
0	92385	64098	58748
0	92391	64098	58738
0	92397	64098	58728
0	92403	64098	58718
0	92409	64098	58708
0	92415	64098	58698
0	92421	64098	58688
0	92427	64098	58678
0	92433	64098	58668
0	92439	64098	58658
0	92445	64098	58648
0	92451	64098	58638
0	92457	64098	58628
0	92463	64098	58618
0	92469	64098	58608
0	92475	64098	58598
0	92481	64098	58588
0	92487	64098	58578
0	92493	64098	58568
0	92499	64098	58558
0	92505	64098	58548
0	92511	64098	58538
0	92517	64098	58528
0	92523	64098	58518
0	92529	64098	58508
0	92535	64098	58498
0	92541	64098	58488
0	92547	64098	58478
0	92553	64098	58468
0	92559	64098	58458
0	92565	64098	58448
0	92571	64098	58438
0	92577	64098	58428
0	92583	64098	58418
0	92589	64098	58408
0	92595	64098	58398
0	92601	64098	58388
0	92607	64098	58378
0	92613	64098	58368
0	92619	64098	58358
0	92625	64098	58348
0	92631	64098	58338
0	92637	64098	58328
0	92643	64098	58318
0	92649	64098	58308
0	92655	64098	58298
0	92661	64098	58288
0	92667	64098	58278
0	92673	64098	58268
0	92679	64098	58258
0	92685	64098	58248
0	92691	64098	58238
0	92697	64098	58228
0	92703	64098	58218
0	92709	64098	58208
0	92715	64098	58198
0	92721	64098	58188
0	92727	64098	58178
0	92733	64098	58168
0	92739	64098	58158
0	92745	64098	58148
0	92751	64098	58138
0	92757	64098	58128
0	92763	64098	58118
0	92769	64098	58108
0	92775	64098	58098
0	92781	64098	58088
0	92787	64098	58078
0	92793	64098	58068
0	92799	64098	58058
0	92805	64098	58048
0	92811	64098	58038
0	92817	64098	58028
0	92823	64098	58018
0	92829	64098	58008
0	92835	64098	57998
0	92841	64098	57988
0	92847	64098	57978
0	92853	64098	57968
0	92859	64098	57958
0	92865	64098	57948
0	92871	64098	57938
0	92877	64098	57928
0	92883	64098	57918
0	92889	64098	57908
0	92895	64098	57898
0	92901	64098	57888
0	92907	64098	57878
0	92913	64098	57868
0	92919	64098	57858
0	92925	64098	57848
0	92931	64098	57838
0	92937	64098	57828
0	92943	64098	57818
0	92949	64098	57808
0	92955	64098	57798
0	92961	64098	57788
0	92967	64098	57778
0	92973	64098	57768
0	92979	64098	57758
0	92985	64098	57748
0	92991	64098	57738
0	92997	64098	57728
0	93003	64098	57718
0	93009	64098	57708
0	93015	64098	57698
0	93021	64098	57688
0	93027	64098	57678
0	93033	64098	57668
0	93039	64098	57658
0	93045	64098	57648
0	93051	64098	57638
0	93057	64098	57628
0	93063	64098	57618
0	93069	64098	57608
0	93075	64098	57598
0	93081	64098	57588
0	93087	64098	57578
0	93093	64098	57568
0	93099	64098	57558
0	93105	64098	57548
0	93111	64098	57538
0	93117	64098	57528
0	93123	64098	57518
0	93129	64098	57508
0	93135	64098	57498
0	93141	64098	57488
0	93147	64098	57478
0	93153	64098	57468
0	93159	64098	57458
0	93165	64098	57448
0	93171	64098	57438
0	93177	64098	57428
0	93183	64098	57418
0	93189	64098	57408
0	93195	64098	57398
0	93201	64098	57388
0	93207	64098	57378
0	93213	64098	57368
0	93219	64098	57358
0	93225	64098	57348
0	93231	64098	57338
0	93237	64098	57328
0	93243	64098	57318
0	93249	64098	57308
0	93255	64098	57298
0	93261	64098	57288
0	93267	64098	57278
0	93273	64098	57268
0	93279	64098	57258
0	93285	64098	57248
0	93291	64098	57238
0	93297	64098	57228
0	93303	64098	57218
0	93309	64098	57208
0	93315	64098	57198
0	93321	64098	57188
0	93327	64098	57178
0	93333	64098	57168
0	93339	64098	57158
0	93345	64098	57148
0	93351	64098	57138
0	93357	64098	57128
0	93363	64098	57118
0	93369	64098	57108
0	93375	64098	57098
0	93381	64098	57088
0	93387	64098	57078
0	93393	64098	57068
0	93399	64098	57058
0	93405	64098	57048
0	93411	64098	57038
0	93417	64098	57028
0	93423	64098	57018
0	93429	64098	57008
0	93435	64098	56998
0	93441	64098	56988
0	93447	64098	56978
0	93453	64098	56968
0	93459	64098	56958
0	93465	64098	56948
0	93471	64098	56938
0	93477	64098	56928
0	93483	64098	56918
0	93489	64098	56908
0	93495	64098	56898
0	93501	64098	56888
0	93507	64098	56878
0	93513	64098	56868
0	93519	64098	56858
0	93525	64098	56848
0	93531	64098	56838
0	93537	64098	56828
0	93543	64098	56818
0	93549	64098	56808
0	93555	64098	56798
0	93561	64098	56788
0	93567	64098	56778
0	93573	64098	56768
0	93579	64098	56758
0	93585	64098	56748
0	93591	64098	56738
0	93597	64098	56728
0	93603	64098	56718
0	93609	64098	56708
0	93615	64098	56698
0	93621	64098	56688
0	93627	64098	56678
0	93633	64098	56668
0	93639	64098	56658
0	93645	64098	56648
0	93651	64098	56638
0	93657	64098	56628
0	93663	64098	56618
0	93669	64098	56608
0	93675	64098	56598
0	93681	64098	56588
0	93687	64098	56578
0	93693	64098	56568
0	93699	64098	56558
0	93705	64098	56548
0	93711	64098	56538
0	93717	64098	56528
0	93723	64098	56518
0	93729	64098	56508
0	93735	64098	56498
0	93741	64098	56488
0	93747	64098	56478
0	93753	64098	56468
0	93759	64098	56458
0	93765	64098	56448
0	93771	64098	56438
0	93777	64098	56428
0	93783	64098	56418
0	93789	64098	56408
0	93795	64098	56398
0	93801	64098	56388
0	93807	64098	56378
0	93813	64098	56368
0	93819	64098	56358
0	93825	64098	56348
0	93831	64098	56338
0	93837	64098	56328
0	93843	64098	56318
0	93849	64098	56308
0	93855	64098	56298
0	93861	64098	56288
0	93867	64098	56278
0	93873	64098	56268
0	93879	64098	56258
0	93885	64098	56248
0	93891	64098	56238
0	93897	64098	56228
0	93903	64098	56218
0	93909	64098	56208
0	93915	64098	56198
0	93921	64098	56188
0	93927	64098	56178
0	93933	64098	56168
0	93939	64098	56158
0	93945	64098	56148
0	93951	64098	56138
0	93957	64098	56128
0	93963	64098	56118
0	93969	64098	56108
0	93975	64098	56098
0	93981	64098	56088
0	93987	64098	56078
0	93993	64098	56068
0	93999	64098	56058
0	94005	64098	56048
0	94011	64098	56038
0	94017	64098	56028
0	94023	64098	56018
0	94029	64098	56008
0	94035	64098	55998
0	94041	64098	55988
0	94047	64098	55978
0	94053	64098	55968
0	94059	64098	55958
0	94065	64098	55948
0	94071	64098	55938
0	94077	64098	55928
0	94083	64098	55918
0	94089	64098	55908
0	94095	64098	55898
0	94101	64098	55888
0	94107	64098	55878
0	94113	64098	55868
0	94119	64098	55858
0	94125	64098	55848
0	94131	64098	55838
0	94137	64098	55828
0	94143	64098	55818
0	94149	64098	55808
0	94155	64098	55798
0	94161	64098	55788
0	94167	64098	55778
0	94173	64098	55768
0	94179	64098	55758
0	94185	64098	55748
0	94191	64098	55738
0	94197	64098	55728
0	94203	64098	55718
0	94209	64098	55708
0	94215	64098	55698
0	94221	64098	55688
0	94227	64098	55678
0	94233	64098	55668
0	94239	64098	55658
0	94245	64098	55648
0	94251	64098	55638
0	94257	64098	55628
0	94263	64098	55618
0	94269	64098	55608
0	94275	64098	55598
0	94281	64098	55588
0	94287	64098	55578
0	94293	64098	55568
0	94299	64098	55558
0	94305	64098	55548
0	94311	64098	55538
0	94317	64098	55528
0	94323	64098	55518
0	94329	64098	55508
0	94335	64098	55498
0	94341	64098	55488
0	94347	64098	55478
0	94353	64098	55468
0	94359	64098	55458
0	94365	64098	55448
0	94371	64098	55438
0	94377	64098	55428
0	94383	64098	55418
0	94389	64098	55408
0	94395	64098	55398
0	94401	64098	55388
0	94407	64098	55378
0	94413	64098	55368
0	94419	64098	55358
0	94425	64098	55348
0	94431	64098	55338
0	94437	64098	55328
0	94443	64098	55318
0	94449	64098	55308
0	94455	64098	55298
0	94461	64098	55288
0	94467	64098	55278
0	94473	64098	55268
0	94479	64098	55258
0	94485	64098	55248
0	94491	64098	55238
0	94497	64098	55228
0	94503	64098	55218
0	94509	64098	55208
0	94515	64098	55198
0	94521	64098	55188
0	94527	64098	55178
0	94533	64098	55168
0	94539	64098	55158
0	94545	64098	55148
0	94551	64098	55138
0	94557	64098	55128
0	94563	64098	55118
0	94569	64098	55108
0	94575	64098	55098
0	94581	64098	55088
0	94587	64098	55078
0	94593	64098	55068
0	94599	64098	55058
0	94605	64098	55048
0	94611	64098	55038
0	94617	64098	55028
0	94623	64098	55018
0	94629	64098	55008
0	94635	64098	54998
0	94641	64098	54988
0	94647	64098	54978
0	94653	64098	54968
0	94659	64098	54958
0	94665	64098	54948
0	94671	64098	54938
0	94677	64098	54928
0	94683	64098	54918
0	94689	64098	54908
0	94695	64098	54898
0	94701	64098	54888
0	94707	64098	54878
0	94713	64098	54868
0	94719	64098	54858
0	94725	64098	54848
0	94731	64098	54838
0	94737	64098	54828
0	94743	64098	54818
0	94749	64098	54808
0	94755	64098	54798
0	94761	64098	54788
0	94767	64098	54778
0	94773	64098	54768
0	94779	64098	54758
0	94785	64098	54748
0	94791	64098	54738
0	94797	64098	54728
0	94803	64098	54718
0	94809	64098	54708
0	94815	64098	54698
0	94821	64098	54688
0	94827	64098	54678
0	94833	64098	54668
0	94839	64098	54658
0	94845	64098	54648
0	94851	64098	54638
0	94857	64098	54628
0	94863	64098	54618
0	94869	64098	54608
0	94875	64098	54598
0	94881	64098	54588
0	94887	64098	54578
0	94893	64098	54568
0	94899	64098	54558
0	94905	64098	54548
0	94911	64098	54538
0	94917	64098	54528
0	94923	64098	54518
0	94929	64098	54508
0	94935	64098	54498
0	94941	64098	54488
0	94947	64098	54478
0	94953	64098	54468
0	94959	64098	54458
0	94965	64098	54448
0	94971	64098	54438
0	94977	64098	54428
0	94983	64098	54418
0	94989	64098	54408
0	94995	64098	54398
0	95001	64098	54388
0	95007	64098	54378
0	95013	64098	54368
0	95019	64098	54358
0	95025	64098	54348
0	95031	64098	54338
0	95037	64098	54328
0	95043	64098	54318
0	95049	64098	54308
0	95055	64098	54298
0	95061	64098	54288
0	95067	64098	54278
0	95073	64098	54268
0	95079	64098	54258
0	95085	64098	54248
0	95091	64098	54238
0	95097	64098	54228
0	95103	64098	54218
0	95109	64098	54208
0	95115	64098	54198
0	95121	64098	54188
0	95127	64098	54178
0	95133	64098	54168
0	95139	64098	54158
0	95145	64098	54148
0	95151	64098	54138
0	95157	64098	54128
0	95163	64098	54118
0	95169	64098	54108
0	95175	64098	54098
0	95181	64098	54088
0	95187	64098	54078
0	95193	64098	54068
0	95199	64098	54058
0	95205	64098	54048
0	95211	64098	54038
0	95217	64098	54028
0	95223	64098	54018
0	95229	64098	54008
0	95235	64098	53998
0	95241	64098	53988
0	95247	64098	53978
0	95253	64098	53968
0	95259	64098	53958
0	95265	64098	53948
0	95271	64098	53938
0	95277	64098	53928
0	95283	64098	53918
0	95289	64098	53908
0	95295	64098	53898
0	95301	64098	53888
0	95307	64098	53878
0	95313	64098	53868
0	95319	64098	53858
0	95325	64098	53848
0	95331	64098	53838
0	95337	64098	53828
0	95343	64098	53818
0	95349	64098	53808
0	95355	64098	53798
0	95361	64098	53788
0	95367	64098	53778
0	95373	64098	53768
0	95379	64098	53758
0	95385	64098	53748
0	95391	64098	53738
0	95397	64098	53728
0	95403	64098	53718
0	95409	64098	53708
0	95415	64098	53698
0	95421	64098	53688
0	95427	64098	53678
0	95433	64098	53668
0	95439	64098	53658
0	95445	64098	53648
0	95451	64098	53638
0	95457	64098	53628
0	95463	64098	53618
0	95469	64098	53608
0	95475	64098	53598
0	95481	64098	53588
0	95487	64098	53578
0	95493	64098	53568
0	95499	64098	53558
0	95505	64098	53548
0	95511	64098	53538
0	95517	64098	53528
0	95523	64098	53518
0	95529	64098	53508
0	95535	64098	53498
0	95541	64098	53488
0	95547	64098	53478
0	95553	64098	53468
0	95559	64098	53458
0	95565	64098	53448
0	95571	64098	53438
0	95577	64098	53428
0	95583	64098	53418
0	95589	64098	53408
0	95595	64098	53398
0	95601	64098	53388
0	95607	64098	53378
0	95613	64098	53368
0	95619	64098	53358
0	95625	64098	53348
0	95631	64098	53338
0	95637	64098	53328
0	95643	64098	53318
0	95649	64098	53308
0	95655	64098	53298
0	95661	64098	53288
0	95667	64098	53278
0	95673	64098	53268
0	95679	64098	53258
0	95685	64098	53248
0	95691	64098	53238
0	95697	64098	53228
0	95703	64098	53218
0	95709	64098	53208
0	95715	64098	53198
0	95721	64098	53188
0	95727	64098	53178
0	95733	64098	53168
0	95739	64098	53158
0	95745	64098	53148
0	95751	64098	53138
0	95757	64098	53128
0	95763	64098	53118
0	95769	64098	53108
0	95775	64098	53098
0	95781	64098	53088
0	95787	64098	53078
0	95793	64098	53068
0	95799	64098	53058
0	95805	64098	53048
0	95811	64098	53038
0	95817	64098	53028
0	95823	64098	53018
0	95829	64098	53008
0	95835	64098	52998
0	95841	64098	52988
0	95847	64098	52978
0	95853	64098	52968
0	95859	64098	52958
0	95865	64098	52948
0	95871	64098	52938
0	95877	64098	52928
0	95883	64098	52918
0	95889	64098	52908
0	95895	64098	52898
0	95901	64098	52888
0	95907	64098	52878
0	95913	64098	52868
0	95919	64098	52858
0	95925	64098	52848
0	95931	64098	52838
0	95937	64098	52828
0	95943	64098	52818
0	95949	64098	52808
0	95955	64098	52798
0	95961	64098	52788
0	95967	64098	52778
0	95973	64098	52768
0	95979	64098	52758
0	95985	64098	52748
0	95991	64098	52738
0	95997	64098	52728
0	96003	64098	52718
0	96009	64098	52708
0	96015	64098	52698
0	96021	64098	52688
0	96027	64098	52678
0	96033	64098	52668
0	96039	64098	52658
0	96045	64098	52648
0	96051	64098	52638
0	96057	64098	52628
0	96063	64098	52618
0	96069	64098	52608
0	96075	64098	52598
0	96081	64098	52588
0	96087	64098	52578
0	96093	64098	52568
0	96099	64098	52558
0	96105	64098	52548
0	96111	64098	52538
0	96117	64098	52528
0	96123	64098	52518
0	96129	64098	52508
0	96135	64098	52498
0	96141	64098	52488
0	96147	64098	52478
0	96153	64098	52468
0	96159	64098	52458
0	96165	64098	52448
0	96171	64098	52438
0	96177	64098	52428
0	96183	64098	52418
0	96189	64098	52408
0	96195	64098	52398
0	96201	64098	52388
0	96207	64098	52378
0	96213	64098	52368
0	96219	64098	52358
0	96225	64098	52348
0	96231	64098	52338
0	96237	64098	52328
0	96243	64098	52318
0	96249	64098	52308
0	96255	64098	52298
0	96261	64098	52288
0	96267	64098	52278
0	96273	64098	52268
0	96279	64098	52258
0	96285	64098	52248
0	96291	64098	52238
0	96297	64098	52228
0	96303	64098	52218
0	96309	64098	52208
0	96315	64098	52198
0	96321	64098	52188
0	96327	64098	52178
0	96333	64098	52168
0	96339	64098	52158
0	96345	64098	52148
0	96351	64098	52138
0	96357	64098	52128
0	96363	64098	52118
0	96369	64098	52108
0	96375	64098	52098
0	96381	64098	52088
0	96387	64098	52078
0	96393	64098	52068
0	96399	64098	52058
0	96405	64098	52048
0	96411	64098	52038
0	96417	64098	52028
0	96423	64098	52018
0	96429	64098	52008
0	96435	64098	51998
0	96441	64098	51988
0	96447	64098	51978
0	96453	64098	51968
0	96459	64098	51958
0	96465	64098	51948
0	96471	64098	51938
0	96477	64098	51928
0	96483	64098	51918
0	96489	64098	51908
0	96495	64098	51898
0	96501	64098	51888
0	96507	64098	51878
0	96513	64098	51868
0	96519	64098	51858
0	96525	64098	51848
0	96531	64098	51838
0	96537	64098	51828
0	96543	64098	51818
0	96549	64098	51808
0	96555	64098	51798
0	96561	64098	51788
0	96567	64098	51778
0	96573	64098	51768
0	96579	64098	51758
0	96585	64098	51748
0	96591	64098	51738
0	96597	64098	51728
0	96603	64098	51718
0	96609	64098	51708
0	96615	64098	51698
0	96621	64098	51688
0	96627	64098	51678
0	96633	64098	51668
0	96639	64098	51658
0	96645	64098	51648
0	96651	64098	51638
0	96657	64098	51628
0	96663	64098	51618
0	96669	64098	51608
0	96675	64098	51598
0	96681	64098	51588
0	96687	64098	51578
0	96693	64098	51568
0	96699	64098	51558
0	96705	64098	51548
0	96711	64098	51538
0	96717	64098	51528
0	96723	64098	51518
0	96729	64098	51508
0	96735	64098	51498
0	96741	64098	51488
0	96747	64098	51478
0	96753	64098	51468
0	96759	64098	51458
0	96765	64098	51448
0	96771	64098	51438
0	96777	64098	51428
0	96783	64098	51418
0	96789	64098	51408
0	96795	64098	51398
0	96801	64098	51388
0	96807	64098	51378
0	96813	64098	51368
0	96819	64098	51358
0	96825	64098	51348
0	96831	64098	51338
0	96837	64098	51328
0	96843	64098	51318
0	96849	64098	51308
0	96855	64098	51298
0	96861	64098	51288
0	96867	64098	51278
0	96873	64098	51268
0	96879	64098	51258
0	96885	64098	51248
0	96891	64098	51238
0	96897	64098	51228
0	96903	64098	51218
0	96909	64098	51208
0	96915	64098	51198
0	96921	64098	51188
0	96927	64098	51178
0	96933	64098	51168
0	96939	64098	51158
0	96945	64098	51148
0	96951	64098	51138
0	96957	64098	51128
0	96963	64098	51118
0	96969	64098	51108
0	96975	64098	51098
0	96981	64098	51088
0	96987	64098	51078
0	96993	64098	51068
0	96999	64098	51058
0	97005	64098	51048
0	97011	64098	51038
0	97017	64098	51028
0	97023	64098	51018
0	97029	64098	51008
0	97035	64098	50998
0	97041	64098	50988
0	97047	64098	50978
0	97053	64098	50968
0	97059	64098	50958
0	97065	64098	50948
0	97071	64098	50938
0	97077	64098	50928
0	97083	64098	50918
0	97089	64098	50908
0	97095	64098	50898
0	97101	64098	50888
0	97107	64098	50878
0	97113	64098	50868
0	97119	64098	50858
0	97125	64098	50848
0	97131	64098	50838
0	97137	64098	50828
0	97143	64098	50818
0	97149	64098	50808
0	97155	64098	50798
0	97161	64098	50788
0	97167	64098	50778
0	97173	64098	50768
0	97179	64098	50758
0	97185	64098	50748
0	97191	64098	50738
0	97197	64098	50728
0	97203	64098	50718
0	97209	64098	50708
0	97215	64098	50698
0	97221	64098	50688
0	97227	64098	50678
0	97233	64098	50668
0	97239	64098	50658
0	97245	64098	50648
0	97251	64098	50638
0	97257	64098	50628
0	97263	64098	50618
0	97269	64098	50608
0	97275	64098	50598
0	97281	64098	50588
0	97287	64098	50578
0	97293	64098	50568
0	97299	64098	50558
0	97305	64098	50548
0	97311	64098	50538
0	97317	64098	50528
0	97323	64098	50518
0	97329	64098	50508
0	97335	64098	50498
0	97341	64098	50488
0	97347	64098	50478
0	97353	64098	50468
0	97359	64098	50458
0	97365	64098	50448
0	97371	64098	50438
0	97377	64098	50428
0	97383	64098	50418
0	97389	64098	50408
0	97395	64098	50398
0	97401	64098	50388
0	97407	64098	50378
0	97413	64098	50368
0	97419	64098	50358
0	97425	64098	50348
0	97431	64098	50338
0	97437	64098	50328
0	97443	64098	50318
0	97449	64098	50308
0	97455	64098	50298
0	97461	64098	50288
0	97467	64098	50278
0	97473	64098	50268
0	97479	64098	50258
0	97485	64098	50248
0	97491	64098	50238
0	97497	64098	50228
0	97503	64098	50218
0	97509	64098	50208
0	97515	64098	50198
0	97521	64098	50188
0	97527	64098	50178
0	97533	64098	50168
0	97539	64098	50158
0	97545	64098	50148
0	97551	64098	50138
0	97557	64098	50128
0	97563	64098	50118
0	97569	64098	50108
0	97575	64098	50098
0	97581	64098	50088
0	97587	64098	50078
0	97593	64098	50068
0	97599	64098	50058
0	97605	64098	50048
0	97611	64098	50038
0	97617	64098	50028
0	97623	64098	50018
0	97629	64098	50008
0	97635	64098	49998
0	97641	64098	49988
0	97647	64098	49978
0	97653	64098	49968
0	97659	64098	49958
0	97665	64098	49948
0	97671	64098	49938
0	97677	64098	49928
0	97683	64098	49918
0	97689	64098	49908
0	97695	64098	49898
0	97701	64098	49888
0	97707	64098	49878
0	97713	64098	49868
0	97719	64098	49858
0	97725	64098	49848
0	97731	64098	49838
0	97737	64098	49828
0	97743	64098	49818
0	97749	64098	49808
0	97755	64098	49798
0	97761	64098	49788
0	97767	64098	49778
0	97773	64098	49768
0	97779	64098	49758
0	97785	64098	49748
0	97791	64098	49738
0	97797	64098	49728
0	97803	64098	49718
0	97809	64098	49708
0	97815	64098	49698
0	97821	64098	49688
0	97827	64098	49678
0	97833	64098	49668
0	97839	64098	49658
0	97845	64098	49648
0	97851	64098	49638
0	97857	64098	49628
0	97863	64098	49618
0	97869	64098	49608
0	97875	64098	49598
0	97881	64098	49588
0	97887	64098	49578
0	97893	64098	49568
0	97899	64098	49558
0	97905	64098	49548
0	97911	64098	49538
0	97917	64098	49528
0	97923	64098	49518
0	97929	64098	49508
0	97935	64098	49498
0	97941	64098	49488
0	97947	64098	49478
0	97953	64098	49468
0	97959	64098	49458
0	97965	64098	49448
0	97971	64098	49438
0	97977	64098	49428
0	97983	64098	49418
0	97989	64098	49408
0	97995	64098	49398
0	98001	64098	49388
0	98007	64098	49378
0	98013	64098	49368
0	98019	64098	49358
0	98025	64098	49348
0	98031	64098	49338
0	98037	64098	49328
0	98043	64098	49318
0	98049	64098	49308
0	98055	64098	49298
0	98061	64098	49288
0	98067	64098	49278
0	98073	64098	49268
0	98079	64098	49258
0	98085	64098	49248
0	98091	64098	49238
0	98097	64098	49228
0	98103	64098	49218
0	98109	64098	49208
0	98115	64098	49198
0	98121	64098	49188
0	98127	64098	49178
0	98133	64098	49168
0	98139	64098	49158
0	98145	64098	49148
0	98151	64098	49138
0	98157	64098	49128
0	98163	64098	49118
0	98169	64098	49108
0	98175	64098	49098
0	98181	64098	49088
0	98187	64098	49078
0	98193	64098	49068
0	98199	64098	49058
0	98205	64098	49048
0	98211	64098	49038
0	98217	64098	49028
0	98223	64098	49018
0	98229	64098	49008
0	98235	64098	48998
0	98241	64098	48988
0	98247	64098	48978
0	98253	64098	48968
0	98259	64098	48958
0	98265	64098	48948
0	98271	64098	48938
0	98277	64098	48928
0	98283	64098	48918
0	98289	64098	48908
0	98295	64098	48898
0	98301	64098	48888
0	98307	64098	48878
0	98313	64098	48868
0	98319	64098	48858
0	98325	64098	48848
0	98331	64098	48838
0	98337	64098	48828
0	98343	64098	48818
0	98349	64098	48808
0	98355	64098	48798
0	98361	64098	48788
0	98367	64098	48778
0	98373	64098	48768
0	98379	64098	48758
0	98385	64098	48748
0	98391	64098	48738
0	98397	64098	48728
0	98403	64098	48718
0	98409	64098	48708
0	98415	64098	48698
0	98421	64098	48688
0	98427	64098	48678
0	98433	64098	48668
0	98439	64098	48658
0	98445	64098	48648
0	98451	64098	48638
0	98457	64098	48628
0	98463	64098	48618
0	98469	64098	48608
0	98475	64098	48598
0	98481	64098	48588
0	98487	64098	48578
0	98493	64098	48568
0	98499	64098	48558
0	98505	64098	48548
0	98511	64098	48538
0	98517	64098	48528
0	98523	64098	48518
0	98529	64098	48508
0	98535	64098	48498
0	98541	64098	48488
0	98547	64098	48478
0	98553	64098	48468
0	98559	64098	48458
0	98565	64098	48448
0	98571	64098	48438
0	98577	64098	48428
0	98583	64098	48418
0	98589	64098	48408
0	98595	64098	48398
0	98601	64098	48388
0	98607	64098	48378
0	98613	64098	48368
0	98619	64098	48358
0	98625	64098	48348
0	98631	64098	48338
0	98637	64098	48328
0	98643	64098	48318
0	98649	64098	48308
0	98655	64098	48298
0	98661	64098	48288
0	98667	64098	48278
0	98673	64098	48268
0	98679	64098	48258
0	98685	64098	48248
0	98691	64098	48238
0	98697	64098	48228
0	98703	64098	48218
0	98709	64098	48208
0	98715	64098	48198
0	98721	64098	48188
0	98727	64098	48178
0	98733	64098	48168
0	98739	64098	48158
0	98745	64098	48148
0	98751	64098	48138
0	98757	64098	48128
0	98763	64098	48118
0	98769	64098	48108
0	98775	64098	48098
0	98781	64098	48088
0	98787	64098	48078
0	98793	64098	48068
0	98799	64098	48058
0	98805	64098	48048
0	98811	64098	48038
0	98817	64098	48028
0	98823	64098	48018
0	98829	64098	48008
0	98835	64098	47998
0	98841	64098	47988
0	98847	64098	47978
0	98853	64098	47968
0	98859	64098	47958
0	98865	64098	47948
0	98871	64098	47938
0	98877	64098	47928
0	98883	64098	47918
0	98889	64098	47908
0	98895	64098	47898
0	98901	64098	47888
0	98907	64098	47878
0	98913	64098	47868
0	98919	64098	47858
0	98925	64098	47848
0	98931	64098	47838
0	98937	64098	47828
0	98943	64098	47818
0	98949	64098	47808
0	98955	64098	47798
0	98961	64098	47788
0	98967	64098	47778
0	98973	64098	47768
0	98979	64098	47758
0	98985	64098	47748
0	98991	64098	47738
0	98997	64098	47728
0	99003	64098	47718
0	99009	64098	47708
0	99015	64098	47698
0	99021	64098	47688
0	99027	64098	47678
0	99033	64098	47668
0	99039	64098	47658
0	99045	64098	47648
0	99051	64098	47638
0	99057	64098	47628
0	99063	64098	47618
0	99069	64098	47608
0	99075	64098	47598
0	99081	64098	47588
0	99087	64098	47578
0	99093	64098	47568
0	99099	64098	47558
0	99105	64098	47548
0	99111	64098	47538
0	99117	64098	47528
0	99123	64098	47518
0	99129	64098	47508
0	99135	64098	47498
0	99141	64098	47488
0	99147	64098	47478
0	99153	64098	47468
0	99159	64098	47458
0	99165	64098	47448
0	99171	64098	47438
0	99177	64098	47428
0	99183	64098	47418
0	99189	64098	47408
0	99195	64098	47398
0	99201	64098	47388
0	99207	64098	47378
0	99213	64098	47368
0	99219	64098	47358
0	99225	64098	47348
0	99231	64098	47338
0	99237	64098	47328
0	99243	64098	47318
0	99249	64098	47308
0	99255	64098	47298
0	99261	64098	47288
0	99267	64098	47278
0	99273	64098	47268
0	99279	64098	47258
0	99285	64098	47248
0	99291	64098	47238
0	99297	64098	47228
0	99303	64098	47218
0	99309	64098	47208
0	99315	64098	47198
0	99321	64098	47188
0	99327	64098	47178
0	99333	64098	47168
0	99339	64098	47158
0	99345	64098	47148
0	99351	64098	47138
0	99357	64098	47128
0	99363	64098	47118
0	99369	64098	47108
0	99375	64098	47098
0	99381	64098	47088
0	99387	64098	47078
0	99393	64098	47068
0	99399	64098	47058
0	99405	64098	47048
0	99411	64098	47038
0	99417	64098	47028
0	99423	64098	47018
0	99429	64098	47008
0	99435	64098	46998
0	99441	64098	46988
0	99447	64098	46978
0	99453	64098	46968
0	99459	64098	46958
0	99465	64098	46948
0	99471	64098	46938
0	99477	64098	46928
0	99483	64098	46918
0	99489	64098	46908
0	99495	64098	46898
0	99501	64098	46888
0	99507	64098	46878
0	99513	64098	46868
0	99519	64098	46858
0	99525	64098	46848
0	99531	64098	46838
0	99537	64098	46828
0	99543	64098	46818
0	99549	64098	46808
0	99555	64098	46798
0	99561	64098	46788
0	99567	64098	46778
0	99573	64098	46768
0	99579	64098	46758
0	99585	64098	46748
0	99591	64098	46738
0	99597	64098	46728
0	99603	64098	46718
0	99609	64098	46708
0	99615	64098	46698
0	99621	64098	46688
0	99627	64098	46678
0	99633	64098	46668
0	99639	64098	46658
0	99645	64098	46648
0	99651	64098	46638
0	99657	64098	46628
0	99663	64098	46618
0	99669	64098	46608
0	99675	64098	46598
0	99681	64098	46588
0	99687	64098	46578
0	99693	64098	46568
0	99699	64098	46558
0	99705	64098	46548
0	99711	64098	46538
0	99717	64098	46528
0	99723	64098	46518
0	99729	64098	46508
0	99735	64098	46498
0	99741	64098	46488
0	99747	64098	46478
0	99753	64098	46468
0	99759	64098	46458
0	99765	64098	46448
0	99771	64098	46438
0	99777	64098	46428
0	99783	64098	46418
0	99789	64098	46408
0	99795	64098	46398
0	99801	64098	46388
0	99807	64098	46378
0	99813	64098	46368
0	99819	64098	46358
0	99825	64098	46348
0	99831	64098	46338
0	99837	64098	46328
0	99843	64098	46318
0	99849	64098	46308
0	99855	64098	46298
0	99861	64098	46288
0	99867	64098	46278
0	99873	64098	46268
0	99879	64098	46258
0	99885	64098	46248
0	99891	64098	46238
0	99897	64098	46228
0	99903	64098	46218
0	99909	64098	46208
0	99915	64098	46198
0	99921	64098	46188
0	99927	64098	46178
0	99933	64098	46168
0	99939	64098	46158
0	99945	64098	46148
0	99951	64098	46138
0	99957	64098	46128
0	99963	64098	46118
0	99969	64098	46108
0	99975	64098	46098
0	99981	64098	46088
0	99987	64098	46078
0	99993	64098	46068
0	99999	64098	46058
0	100005	64098	46048
0	100011	64098	46038
0	100017	64098	46028
0	100023	64098	46018
0	100029	64098	46008
0	100035	64098	45998
0	100041	64098	45988
0	100047	64098	45978
0	100053	64098	45968
0	100059	64098	45958
0	100065	64098	45948
0	100071	64098	45938
0	100077	64098	45928
0	100083	64098	45918
0	100089	64098	45908
0	100095	64098	45898
0	100101	64098	45888
0	100107	64098	45878
0	100113	64098	45868
0	100119	64098	45858
0	100125	64098	45848
0	100131	64098	45838
0	100137	64098	45828
0	100143	64098	45818
0	100149	64098	45808
0	100155	64098	45798
0	100161	64098	45788
0	100167	64098	45778
0	100173	64098	45768
0	100179	64098	45758
0	100185	64098	45748
0	100191	64098	45738
0	100197	64098	45728
0	100203	64098	45718
0	100209	64098	45708
0	100215	64098	45698
0	100221	64098	45688
0	100227	64098	45678
0	100233	64098	45668
0	100239	64098	45658
0	100245	64098	45648
0	100251	64098	45638
0	100257	64098	45628
0	100263	64098	45618
0	100269	64098	45608
0	100275	64098	45598
0	100281	64098	45588
0	100287	64098	45578
0	100293	64098	45568
0	100299	64098	45558
0	100305	64098	45548
0	100311	64098	45538
0	100317	64098	45528
0	100323	64098	45518
0	100329	64098	45508
0	100335	64098	45498
0	100341	64098	45488
0	100347	64098	45478
0	100353	64098	45468
0	100359	64098	45458
0	100365	64098	45448
0	100371	64098	45438
0	100377	64098	45428
0	100383	64098	45418
0	100389	64098	45408
0	100395	64098	45398
0	100401	64098	45388
0	100407	64098	45378
0	100413	64098	45368
0	100419	64098	45358
0	100425	64098	45348
0	100431	64098	45338
0	100437	64098	45328
0	100443	64098	45318
0	100449	64098	45308
0	100455	64098	45298
0	100461	64098	45288
0	100467	64098	45278
0	100473	64098	45268
0	100479	64098	45258
0	100485	64098	45248
0	100491	64098	45238
0	100497	64098	45228
0	100503	64098	45218
0	100509	64098	45208
0	100515	64098	45198
0	100521	64098	45188
0	100527	64098	45178
0	100533	64098	45168
0	100539	64098	45158
0	100545	64098	45148
0	100551	64098	45138
0	100557	64098	45128
0	100563	64098	45118
0	100569	64098	45108
0	100575	64098	45098
0	100581	64098	45088
0	100587	64098	45078
0	100593	64098	45068
0	100599	64098	45058
0	100605	64098	45048
0	100611	64098	45038
0	100617	64098	45028
0	100623	64098	45018
0	100629	64098	45008
0	100635	64098	44998
0	100641	64098	44988
0	100647	64098	44978
0	100653	64098	44968
0	100659	64098	44958
0	100665	64098	44948
0	100671	64098	44938
0	100677	64098	44928
0	100683	64098	44918
0	100689	64098	44908
0	100695	64098	44898
0	100701	64098	44888
0	100707	64098	44878
0	100713	64098	44868
0	100719	64098	44858
0	100725	64098	44848
0	100731	64098	44838
0	100737	64098	44828
0	100743	64098	44818
0	100749	64098	44808
0	100755	64098	44798
0	100761	64098	44788
0	100767	64098	44778
0	100773	64098	44768
0	100779	64098	44758
0	100785	64098	44748
0	100791	64098	44738
0	100797	64098	44728
0	100803	64098	44718
0	100809	64098	44708
0	100815	64098	44698
0	100821	64098	44688
0	100827	64098	44678
0	100833	64098	44668
0	100839	64098	44658
0	100845	64098	44648
0	100851	64098	44638
0	100857	64098	44628
0	100863	64098	44618
0	100869	64098	44608
0	100875	64098	44598
0	100881	64098	44588
0	100887	64098	44578
0	100893	64098	44568
0	100899	64098	44558
0	100905	64098	44548
0	100911	64098	44538
0	100917	64098	44528
0	100923	64098	44518
0	100929	64098	44508
0	100935	64098	44498
0	100941	64098	44488
0	100947	64098	44478
0	100953	64098	44468
0	100959	64098	44458
0	100965	64098	44448
0	100971	64098	44438
0	100977	64098	44428
0	100983	64098	44418
0	100989	64098	44408
0	100995	64098	44398
0	101001	64098	44388
0	101007	64098	44378
0	101013	64098	44368
0	101019	64098	44358
0	101025	64098	44348
0	101031	64098	44338
0	101037	64098	44328
0	101043	64098	44318
0	101049	64098	44308
0	101055	64098	44298
0	101061	64098	44288
0	101067	64098	44278
0	101073	64098	44268
0	101079	64098	44258
0	101085	64098	44248
0	101091	64098	44238
0	101097	64098	44228
0	101103	64098	44218
0	101109	64098	44208
0	101115	64098	44198
0	101121	64098	44188
0	101127	64098	44178
0	101133	64098	44168
0	101139	64098	44158
0	101145	64098	44148
0	101151	64098	44138
0	101157	64098	44128
0	101163	64098	44118
0	101169	64098	44108
0	101175	64098	44098
0	101181	64098	44088
0	101187	64098	44078
0	101193	64098	44068
0	101199	64098	44058
0	101205	64098	44048
0	101211	64098	44038
0	101217	64098	44028
0	101223	64098	44018
0	101229	64098	44008
0	101235	64098	43998
0	101241	64098	43988
0	101247	64098	43978
0	101253	64098	43968
0	101259	64098	43958
0	101265	64098	43948
0	101271	64098	43938
0	101277	64098	43928
0	101283	64098	43918
0	101289	64098	43908
0	101295	64098	43898
0	101301	64098	43888
0	101307	64098	43878
0	101313	64098	43868
0	101319	64098	43858
0	101325	64098	43848
0	101331	64098	43838
0	101337	64098	43828
0	101343	64098	43818
0	101349	64098	43808
0	101355	64098	43798
0	101361	64098	43788
0	101367	64098	43778
0	101373	64098	43768
0	101379	64098	43758
0	101385	64098	43748
0	101391	64098	43738
0	101397	64098	43728
0	101403	64098	43718
0	101409	64098	43708
0	101415	64098	43698
0	101421	64098	43688
0	101427	64098	43678
0	101433	64098	43668
0	101439	64098	43658
0	101445	64098	43648
0	101451	64098	43638
0	101457	64098	43628
0	101463	64098	43618
0	101469	64098	43608
0	101475	64098	43598
0	101481	64098	43588
0	101487	64098	43578
0	101493	64098	43568
0	101499	64098	43558
0	101505	64098	43548
0	101511	64098	43538
0	101517	64098	43528
0	101523	64098	43518
0	101529	64098	43508
0	101535	64098	43498
0	101541	64098	43488
0	101547	64098	43478
0	101553	64098	43468
0	101559	64098	43458
0	101565	64098	43448
0	101571	64098	43438
0	101577	64098	43428
0	101583	64098	43418
0	101589	64098	43408
0	101595	64098	43398
0	101601	64098	43388
0	101607	64098	43378
0	101613	64098	43368
0	101619	64098	43358
0	101625	64098	43348
0	101631	64098	43338
0	101637	64098	43328
0	101643	64098	43318
0	101649	64098	43308
0	101655	64098	43298
0	101661	64098	43288
0	101667	64098	43278
0	101673	64098	43268
0	101679	64098	43258
0	101685	64098	43248
0	101691	64098	43238
0	101697	64098	43228
0	101703	64098	43218
0	101709	64098	43208
0	101715	64098	43198
0	101721	64098	43188
0	101727	64098	43178
0	101733	64098	43168
0	101739	64098	43158
0	101745	64098	43148
0	101751	64098	43138
0	101757	64098	43128
0	101763	64098	43118
0	101769	64098	43108
0	101775	64098	43098
0	101781	64098	43088
0	101787	64098	43078
0	101793	64098	43068
0	101799	64098	43058
0	101805	64098	43048
0	101811	64098	43038
0	101817	64098	43028
0	101823	64098	43018
0	101829	64098	43008
0	101835	64098	42998
0	101841	64098	42988
0	101847	64098	42978
0	101853	64098	42968
0	101859	64098	42958
0	101865	64098	42948
0	101871	64098	42938
0	101877	64098	42928
0	101883	64098	42918
0	101889	64098	42908
0	101895	64098	42898
0	101901	64098	42888
0	101907	64098	42878
0	101913	64098	42868
0	101919	64098	42858
0	101925	64098	42848
0	101931	64098	42838
0	101937	64098	42828
0	101943	64098	42818
0	101949	64098	42808
0	101955	64098	42798
0	101961	64098	42788
0	101967	64098	42778
0	101973	64098	42768
0	101979	64098	42758
0	101985	64098	42748
0	101991	64098	42738
0	101997	64098	42728
0	102003	64098	42718
0	102009	64098	42708
0	102015	64098	42698
0	102021	64098	42688
0	102027	64098	42678
0	102033	64098	42668
0	102039	64098	42658
0	102045	64098	42648
0	102051	64098	42638
0	102057	64098	42628
0	102063	64098	42618
0	102069	64098	42608
0	102075	64098	42598
0	102081	64098	42588
0	102087	64098	42578
0	102093	64098	42568
0	102099	64098	42558
0	102105	64098	42548
0	102111	64098	42538
0	102117	64098	42528
0	102123	64098	42518
0	102129	64098	42508
0	102135	64098	42498
0	102141	64098	42488
0	102147	64098	42478
0	102153	64098	42468
0	102159	64098	42458
0	102165	64098	42448
0	102171	64098	42438
0	102177	64098	42428
0	102183	64098	42418
0	102189	64098	42408
0	102195	64098	42398
0	102201	64098	42388
0	102207	64098	42378
0	102213	64098	42368
0	102219	64098	42358
0	102225	64098	42348
0	102231	64098	42338
0	102237	64098	42328
0	102243	64098	42318
0	102249	64098	42308
0	102255	64098	42298
0	102261	64098	42288
0	102267	64098	42278
0	102273	64098	42268
0	102279	64098	42258
0	102285	64098	42248
0	102291	64098	42238
0	102297	64098	42228
0	102303	64098	42218
0	102309	64098	42208
0	102315	64098	42198
0	102321	64098	42188
0	102327	64098	42178
0	102333	64098	42168
0	102339	64098	42158
0	102345	64098	42148
0	102351	64098	42138
0	102357	64098	42128
0	102363	64098	42118
0	102369	64098	42108
0	102375	64098	42098
0	102381	64098	42088
0	102387	64098	42078
0	102393	64098	42068
0	102399	64098	42058
0	102405	64098	42048
0	102411	64098	42038
0	102417	64098	42028
0	102423	64098	42018
0	102429	64098	42008
0	102435	64098	41998
0	102441	64098	41988
0	102447	64098	41978
0	102453	64098	41968
0	102459	64098	41958
0	102465	64098	41948
0	102471	64098	41938
0	102477	64098	41928
0	102483	64098	41918
0	102489	64098	41908
0	102495	64098	41898
0	102501	64098	41888
0	102507	64098	41878
0	102513	64098	41868
0	102519	64098	41858
0	102525	64098	41848
0	102531	64098	41838
0	102537	64098	41828
0	102543	64098	41818
0	102549	64098	41808
0	102555	64098	41798
0	102561	64098	41788
0	102567	64098	41778
0	102573	64098	41768
0	102579	64098	41758
0	102585	64098	41748
0	102591	64098	41738
0	102597	64098	41728
0	102603	64098	41718
0	102609	64098	41708
0	102615	64098	41698
0	102621	64098	41688
0	102627	64098	41678
0	102633	64098	41668
0	102639	64098	41658
0	102645	64098	41648
0	102651	64098	41638
0	102657	64098	41628
0	102663	64098	41618
0	102669	64098	41608
0	102675	64098	41598
0	102681	64098	41588
0	102687	64098	41578
0	102693	64098	41568
0	102699	64098	41558
0	102705	64098	41548
0	102711	64098	41538
0	102717	64098	41528
0	102723	64098	41518
0	102729	64098	41508
0	102735	64098	41498
0	102741	64098	41488
0	102747	64098	41478
0	102753	64098	41468
0	102759	64098	41458
0	102765	64098	41448
0	102771	64098	41438
0	102777	64098	41428
0	102783	64098	41418
0	102789	64098	41408
0	102795	64098	41398
0	102801	64098	41388
0	102807	64098	41378
0	102813	64098	41368
0	102819	64098	41358
0	102825	64098	41348
0	102831	64098	41338
0	102837	64098	41328
0	102843	64098	41318
0	102849	64098	41308
0	102855	64098	41298
0	102861	64098	41288
0	102867	64098	41278
0	102873	64098	41268
0	102879	64098	41258
0	102885	64098	41248
0	102891	64098	41238
0	102897	64098	41228
0	102903	64098	41218
0	102909	64098	41208
0	102915	64098	41198
0	102921	64098	41188
0	102927	64098	41178
0	102933	64098	41168
0	102939	64098	41158
0	102945	64098	41148
0	102951	64098	41138
0	102957	64098	41128
0	102963	64098	41118
0	102969	64098	41108
0	102975	64098	41098
0	102981	64098	41088
0	102987	64098	41078
0	102993	64098	41068
0	102999	64098	41058
0	103005	64098	41048
0	103011	64098	41038
0	103017	64098	41028
0	103023	64098	41018
0	103029	64098	41008
0	103035	64098	40998
0	103041	64098	40988
0	103047	64098	40978
0	103053	64098	40968
0	103059	64098	40958
0	103065	64098	40948
0	103071	64098	40938
0	103077	64098	40928
0	103083	64098	40918
0	103089	64098	40908
0	103095	64098	40898
0	103101	64098	40888
0	103107	64098	40878
0	103113	64098	40868
0	103119	64098	40858
0	103125	64098	40848
0	103131	64098	40838
0	103137	64098	40828
0	103143	64098	40818
0	103149	64098	40808
0	103155	64098	40798
0	103161	64098	40788
0	103167	64098	40778
0	103173	64098	40768
0	103179	64098	40758
0	103185	64098	40748
0	103191	64098	40738
0	103197	64098	40728
0	103203	64098	40718
0	103209	64098	40708
0	103215	64098	40698
0	103221	64098	40688
0	103227	64098	40678
0	103233	64098	40668
0	103239	64098	40658
0	103245	64098	40648
0	103251	64098	40638
0	103257	64098	40628
0	103263	64098	40618
0	103269	64098	40608
0	103275	64098	40598
0	103281	64098	40588
0	103287	64098	40578
0	103293	64098	40568
0	103299	64098	40558
0	103305	64098	40548
0	103311	64098	40538
0	103317	64098	40528
0	103323	64098	40518
0	103329	64098	40508
0	103335	64098	40498
0	103341	64098	40488
0	103347	64098	40478
0	103353	64098	40468
0	103359	64098	40458
0	103365	64098	40448
0	103371	64098	40438
0	103377	64098	40428
0	103383	64098	40418
0	103389	64098	40408
0	103395	64098	40398
0	103401	64098	40388
0	103407	64098	40378
0	103413	64098	40368
0	103419	64098	40358
0	103425	64098	40348
0	103431	64098	40338
0	103437	64098	40328
0	103443	64098	40318
0	103449	64098	40308
0	103455	64098	40298
0	103461	64098	40288
0	103467	64098	40278
0	103473	64098	40268
0	103479	64098	40258
0	103485	64098	40248
0	103491	64098	40238
0	103497	64098	40228
0	103503	64098	40218
0	103509	64098	40208
0	103515	64098	40198
0	103521	64098	40188
0	103527	64098	40178
0	103533	64098	40168
0	103539	64098	40158
0	103545	64098	40148
0	103551	64098	40138
0	103557	64098	40128
0	103563	64098	40118
0	103569	64098	40108
0	103575	64098	40098
0	103581	64098	40088
0	103587	64098	40078
0	103593	64098	40068
0	103599	64098	40058
0	103605	64098	40048
0	103611	64098	40038
0	103617	64098	40028
0	103623	64098	40018
0	103629	64098	40008
0	103635	64098	39998
0	103641	64098	39988
0	103647	64098	39978
0	103653	64098	39968
0	103659	64098	39958
0	103665	64098	39948
0	103671	64098	39938
0	103677	64098	39928
0	103683	64098	39918
0	103689	64098	39908
0	103695	64098	39898
0	103701	64098	39888
0	103707	64098	39878
0	103713	64098	39868
0	103719	64098	39858
0	103725	64098	39848
0	103731	64098	39838
0	103737	64098	39828
0	103743	64098	39818
0	103749	64098	39808
0	103755	64098	39798
0	103761	64098	39788
0	103767	64098	39778
0	103773	64098	39768
0	103779	64098	39758
0	103785	64098	39748
0	103791	64098	39738
0	103797	64098	39728
0	103803	64098	39718
0	103809	64098	39708
0	103815	64098	39698
0	103821	64098	39688
0	103827	64098	39678
0	103833	64098	39668
0	103839	64098	39658
0	103845	64098	39648
0	103851	64098	39638
0	103857	64098	39628
0	103863	64098	39618
0	103869	64098	39608
0	103875	64098	39598
0	103881	64098	39588
0	103887	64098	39578
0	103893	64098	39568
0	103899	64098	39558
0	103905	64098	39548
0	103911	64098	39538
0	103917	64098	39528
0	103923	64098	39518
0	103929	64098	39508
0	103935	64098	39498
0	103941	64098	39488
0	103947	64098	39478
0	103953	64098	39468
0	103959	64098	39458
0	103965	64098	39448
0	103971	64098	39438
0	103977	64098	39428
0	103983	64098	39418
0	103989	64098	39408
0	103995	64098	39398
0	104001	64098	39388
0	104007	64098	39378
0	104013	64098	39368
0	104019	64098	39358
0	104025	64098	39348
0	104031	64098	39338
0	104037	64098	39328
0	104043	64098	39318
0	104049	64098	39308
0	104055	64098	39298
0	104061	64098	39288
0	104067	64098	39278
0	104073	64098	39268
0	104079	64098	39258
0	104085	64098	39248
0	104091	64098	39238
0	104097	64098	39228
0	104103	64098	39218
0	104109	64098	39208
0	104115	64098	39198
0	104121	64098	39188
0	104127	64098	39178
0	104133	64098	39168
0	104139	64098	39158
0	104145	64098	39148
0	104151	64098	39138
0	104157	64098	39128
0	104163	64098	39118
0	104169	64098	39108
0	104175	64098	39098
0	104181	64098	39088
0	104187	64098	39078
0	104193	64098	39068
0	104199	64098	39058
0	104205	64098	39048
0	104211	64098	39038
0	104217	64098	39028
0	104223	64098	39018
0	104229	64098	39008
0	104235	64098	38998
0	104241	64098	38988
0	104247	64098	38978
0	104253	64098	38968
0	104259	64098	38958
0	104265	64098	38948
0	104271	64098	38938
0	104277	64098	38928
0	104283	64098	38918
0	104289	64098	38908
0	104295	64098	38898
0	104301	64098	38888
0	104307	64098	38878
0	104313	64098	38868
0	104319	64098	38858
0	104325	64098	38848
0	104331	64098	38838
0	104337	64098	38828
0	104343	64098	38818
0	104349	64098	38808
0	104355	64098	38798
0	104361	64098	38788
0	104367	64098	38778
0	104373	64098	38768
0	104379	64098	38758
0	104385	64098	38748
0	104391	64098	38738
0	104397	64098	38728
0	104403	64098	38718
0	104409	64098	38708
0	104415	64098	38698
0	104421	64098	38688
0	104427	64098	38678
0	104433	64098	38668
0	104439	64098	38658
0	104445	64098	38648
0	104451	64098	38638
0	104457	64098	38628
0	104463	64098	38618
0	104469	64098	38608
0	104475	64098	38598
0	104481	64098	38588
0	104487	64098	38578
0	104493	64098	38568
0	104499	64098	38558
0	104505	64098	38548
0	104511	64098	38538
0	104517	64098	38528
0	104523	64098	38518
0	104529	64098	38508
0	104535	64098	38498
0	104541	64098	38488
0	104547	64098	38478
0	104553	64098	38468
0	104559	64098	38458
0	104565	64098	38448
0	104571	64098	38438
0	104577	64098	38428
0	104583	64098	38418
0	104589	64098	38408
0	104595	64098	38398
0	104601	64098	38388
0	104607	64098	38378
0	104613	64098	38368
0	104619	64098	38358
0	104625	64098	38348
0	104631	64098	38338
0	104637	64098	38328
0	104643	64098	38318
0	104649	64098	38308
0	104655	64098	38298
0	104661	64098	38288
0	104667	64098	38278
0	104673	64098	38268
0	104679	64098	38258
0	104685	64098	38248
0	104691	64098	38238
0	104697	64098	38228
0	104703	64098	38218
0	104709	64098	38208
0	104715	64098	38198
0	104721	64098	38188
0	104727	64098	38178
0	104733	64098	38168
0	104739	64098	38158
0	104745	64098	38148
0	104751	64098	38138
0	104757	64098	38128
0	104763	64098	38118
0	104769	64098	38108
0	104775	64098	38098
0	104781	64098	38088
0	104787	64098	38078
0	104793	64098	38068
0	104799	64098	38058
0	104805	64098	38048
0	104811	64098	38038
0	104817	64098	38028
0	104823	64098	38018
0	104829	64098	38008
0	104835	64098	37998
0	104841	64098	37988
0	104847	64098	37978
0	104853	64098	37968
0	104859	64098	37958
0	104865	64098	37948
0	104871	64098	37938
0	104877	64098	37928
0	104883	64098	37918
0	104889	64098	37908
0	104895	64098	37898
0	104901	64098	37888
0	104907	64098	37878
0	104913	64098	37868
0	104919	64098	37858
0	104925	64098	37848
0	104931	64098	37838
0	104937	64098	37828
0	104943	64098	37818
0	104949	64098	37808
0	104955	64098	37798
0	104961	64098	37788
0	104967	64098	37778
0	104973	64098	37768
0	104979	64098	37758
0	104985	64098	37748
0	104991	64098	37738
0	104997	64098	37728
0	105003	64098	37718
0	105009	64098	37708
0	105015	64098	37698
0	105021	64098	37688
0	105027	64098	37678
0	105033	64098	37668
0	105039	64098	37658
0	105045	64098	37648
0	105051	64098	37638
0	105057	64098	37628
0	105063	64098	37618
0	105069	64098	37608
0	105075	64098	37598
0	105081	64098	37588
0	105087	64098	37578
0	105093	64098	37568
0	105099	64098	37558
0	105105	64098	37548
0	105111	64098	37538
0	105117	64098	37528
0	105123	64098	37518
0	105129	64098	37508
0	105135	64098	37498
0	105141	64098	37488
0	105147	64098	37478
0	105153	64098	37468
0	105159	64098	37458
0	105165	64098	37448
0	105171	64098	37438
0	105177	64098	37428
0	105183	64098	37418
0	105189	64098	37408
0	105195	64098	37398
0	105201	64098	37388
0	105207	64098	37378
0	105213	64098	37368
0	105219	64098	37358
0	105225	64098	37348
0	105231	64098	37338
0	105237	64098	37328
0	105243	64098	37318
0	105249	64098	37308
0	105255	64098	37298
0	105261	64098	37288
0	105267	64098	37278
0	105273	64098	37268
0	105279	64098	37258
0	105285	64098	37248
0	105291	64098	37238
0	105297	64098	37228
0	105303	64098	37218
0	105309	64098	37208
0	105315	64098	37198
0	105321	64098	37188
0	105327	64098	37178
0	105333	64098	37168
0	105339	64098	37158
0	105345	64098	37148
0	105351	64098	37138
0	105357	64098	37128
0	105363	64098	37118
0	105369	64098	37108
0	105375	64098	37098
0	105381	64098	37088
0	105387	64098	37078
0	105393	64098	37068
0	105399	64098	37058
0	105405	64098	37048
0	105411	64098	37038
0	105417	64098	37028
0	105423	64098	37018
0	105429	64098	37008
0	105435	64098	36998
0	105441	64098	36988
0	105447	64098	36978
0	105453	64098	36968
0	105459	64098	36958
0	105465	64098	36948
0	105471	64098	36938
0	105477	64098	36928
0	105483	64098	36918
0	105489	64098	36908
0	105495	64098	36898
0	105501	64098	36888
0	105507	64098	36878
0	105513	64098	36868
0	105519	64098	36858
0	105525	64098	36848
0	105531	64098	36838
0	105537	64098	36828
0	105543	64098	36818
0	105549	64098	36808
0	105555	64098	36798
0	105561	64098	36788
0	105567	64098	36778
0	105573	64098	36768
0	105579	64098	36758
0	105585	64098	36748
0	105591	64098	36738
0	105597	64098	36728
0	105603	64098	36718
0	105609	64098	36708
0	105615	64098	36698
0	105621	64098	36688
0	105627	64098	36678
0	105633	64098	36668
0	105639	64098	36658
0	105645	64098	36648
0	105651	64098	36638
0	105657	64098	36628
0	105663	64098	36618
0	105669	64098	36608
0	105675	64098	36598
0	105681	64098	36588
0	105687	64098	36578
0	105693	64098	36568
0	105699	64098	36558
0	105705	64098	36548
0	105711	64098	36538
0	105717	64098	36528
0	105723	64098	36518
0	105729	64098	36508
0	105735	64098	36498
0	105741	64098	36488
0	105747	64098	36478
0	105753	64098	36468
0	105759	64098	36458
0	105765	64098	36448
0	105771	64098	36438
0	105777	64098	36428
0	105783	64098	36418
0	105789	64098	36408
0	105795	64098	36398
0	105801	64098	36388
0	105807	64098	36378
0	105813	64098	36368
0	105819	64098	36358
0	105825	64098	36348
0	105831	64098	36338
0	105837	64098	36328
0	105843	64098	36318
0	105849	64098	36308
0	105855	64098	36298
0	105861	64098	36288
0	105867	64098	36278
0	105873	64098	36268
0	105879	64098	36258
0	105885	64098	36248
0	105891	64098	36238
0	105897	64098	36228
0	105903	64098	36218
0	105909	64098	36208
0	105915	64098	36198
0	105921	64098	36188
0	105927	64098	36178
0	105933	64098	36168
0	105939	64098	36158
0	105945	64098	36148
0	105951	64098	36138
0	105957	64098	36128
0	105963	64098	36118
0	105969	64098	36108
0	105975	64098	36098
0	105981	64098	36088
0	105987	64098	36078
0	105993	64098	36068
0	105999	64098	36058
0	106005	64098	36048
0	106011	64098	36038
0	106017	64098	36028
0	106023	64098	36018
0	106029	64098	36008
0	106035	64098	35998
0	106041	64098	35988
0	106047	64098	35978
0	106053	64098	35968
0	106059	64098	35958
0	106065	64098	35948
0	106071	64098	35938
0	106077	64098	35928
0	106083	64098	35918
0	106089	64098	35908
0	106095	64098	35898
0	106101	64098	35888
0	106107	64098	35878
0	106113	64098	35868
0	106119	64098	35858
0	106125	64098	35848
0	106131	64098	35838
0	106137	64098	35828
0	106143	64098	35818
0	106149	64098	35808
0	106155	64098	35798
0	106161	64098	35788
0	106167	64098	35778
0	106173	64098	35768
0	106179	64098	35758
0	106185	64098	35748
0	106191	64098	35738
0	106197	64098	35728
0	106203	64098	35718
0	106209	64098	35708
0	106215	64098	35698
0	106221	64098	35688
0	106227	64098	35678
0	106233	64098	35668
0	106239	64098	35658
0	106245	64098	35648
0	106251	64098	35638
0	106257	64098	35628
0	106263	64098	35618
0	106269	64098	35608
0	106275	64098	35598
0	106281	64098	35588
0	106287	64098	35578
0	106293	64098	35568
0	106299	64098	35558
0	106305	64098	35548
0	106311	64098	35538
0	106317	64098	35528
0	106323	64098	35518
0	106329	64098	35508
0	106335	64098	35498
0	106341	64098	35488
0	106347	64098	35478
0	106353	64098	35468
0	106359	64098	35458
0	106365	64098	35448
0	106371	64098	35438
0	106377	64098	35428
0	106383	64098	35418
0	106389	64098	35408
0	106395	64098	35398
0	106401	64098	35388
0	106407	64098	35378
0	106413	64098	35368
0	106419	64098	35358
0	106425	64098	35348
0	106431	64098	35338
0	106437	64098	35328
0	106443	64098	35318
0	106449	64098	35308
0	106455	64098	35298
0	106461	64098	35288
0	106467	64098	35278
0	106473	64098	35268
0	106479	64098	35258
0	106485	64098	35248
0	106491	64098	35238
0	106497	64098	35228
0	106503	64098	35218
0	106509	64098	35208
0	106515	64098	35198
0	106521	64098	35188
0	106527	64098	35178
0	106533	64098	35168
0	106539	64098	35158
0	106545	64098	35148
0	106551	64098	35138
0	106557	64098	35128
0	106563	64098	35118
0	106569	64098	35108
0	106575	64098	35098
0	106581	64098	35088
0	106587	64098	35078
0	106593	64098	35068
0	106599	64098	35058
0	106605	64098	35048
0	106611	64098	35038
0	106617	64098	35028
0	106623	64098	35018
0	106629	64098	35008
0	106635	64098	34998
0	106641	64098	34988
0	106647	64098	34978
0	106653	64098	34968
0	106659	64098	34958
0	106665	64098	34948
0	106671	64098	34938
0	106677	64098	34928
0	106683	64098	34918
0	106689	64098	34908
0	106695	64098	34898
0	106701	64098	34888
0	106707	64098	34878
0	106713	64098	34868
0	106719	64098	34858
0	106725	64098	34848
0	106731	64098	34838
0	106737	64098	34828
0	106743	64098	34818
0	106749	64098	34808
0	106755	64098	34798
0	106761	64098	34788
0	106767	64098	34778
0	106773	64098	34768
0	106779	64098	34758
0	106785	64098	34748
0	106791	64098	34738
0	106797	64098	34728
0	106803	64098	34718
0	106809	64098	34708
0	106815	64098	34698
0	106821	64098	34688
0	106827	64098	34678
0	106833	64098	34668
0	106839	64098	34658
0	106845	64098	34648
0	106851	64098	34638
0	106857	64098	34628
0	106863	64098	34618
0	106869	64098	34608
0	106875	64098	34598
0	106881	64098	34588
0	106887	64098	34578
0	106893	64098	34568
0	106899	64098	34558
0	106905	64098	34548
0	106911	64098	34538
0	106917	64098	34528
0	106923	64098	34518
0	106929	64098	34508
0	106935	64098	34498
0	106941	64098	34488
0	106947	64098	34478
0	106953	64098	34468
0	106959	64098	34458
0	106965	64098	34448
0	106971	64098	34438
0	106977	64098	34428
0	106983	64098	34418
0	106989	64098	34408
0	106995	64098	34398
0	107001	64098	34388
0	107007	64098	34378
0	107013	64098	34368
0	107019	64098	34358
0	107025	64098	34348
0	107031	64098	34338
0	107037	64098	34328
0	107043	64098	34318
0	107049	64098	34308
0	107055	64098	34298
0	107061	64098	34288
0	107067	64098	34278
0	107073	64098	34268
0	107079	64098	34258
0	107085	64098	34248
0	107091	64098	34238
0	107097	64098	34228
0	107103	64098	34218
0	107109	64098	34208
0	107115	64098	34198
0	107121	64098	34188
0	107127	64098	34178
0	107133	64098	34168
0	107139	64098	34158
0	107145	64098	34148
0	107151	64098	34138
0	107157	64098	34128
0	107163	64098	34118
0	107169	64098	34108
0	107175	64098	34098
0	107181	64098	34088
0	107187	64098	34078
0	107193	64098	34068
0	107199	64098	34058
0	107205	64098	34048
0	107211	64098	34038
0	107217	64098	34028
0	107223	64098	34018
0	107229	64098	34008
0	107235	64098	33998
0	107241	64098	33988
0	107247	64098	33978
0	107253	64098	33968
0	107259	64098	33958
0	107265	64098	33948
0	107271	64098	33938
0	107277	64098	33928
0	107283	64098	33918
0	107289	64098	33908
0	107295	64098	33898
0	107301	64098	33888
0	107307	64098	33878
0	107313	64098	33868
0	107319	64098	33858
0	107325	64098	33848
0	107331	64098	33838
0	107337	64098	33828
0	107343	64098	33818
0	107349	64098	33808
0	107355	64098	33798
0	107361	64098	33788
0	107367	64098	33778
0	107373	64098	33768
0	107379	64098	33758
0	107385	64098	33748
0	107391	64098	33738
0	107397	64098	33728
0	107403	64098	33718
0	107409	64098	33708
0	107415	64098	33698
0	107421	64098	33688
0	107427	64098	33678
0	107433	64098	33668
0	107439	64098	33658
0	107445	64098	33648
0	107451	64098	33638
0	107457	64098	33628
0	107463	64098	33618
0	107469	64098	33608
0	107475	64098	33598
0	107481	64098	33588
0	107487	64098	33578
0	107493	64098	33568
0	107499	64098	33558
0	107505	64098	33548
0	107511	64098	33538
0	107517	64098	33528
0	107523	64098	33518
0	107529	64098	33508
0	107535	64098	33498
0	107541	64098	33488
0	107547	64098	33478
0	107553	64098	33468
0	107559	64098	33458
0	107565	64098	33448
0	107571	64098	33438
0	107577	64098	33428
0	107583	64098	33418
0	107589	64098	33408
0	107595	64098	33398
0	107601	64098	33388
0	107607	64098	33378
0	107613	64098	33368
0	107619	64098	33358
0	107625	64098	33348
0	107631	64098	33338
0	107637	64098	33328
0	107643	64098	33318
0	107649	64098	33308
0	107655	64098	33298
0	107661	64098	33288
0	107667	64098	33278
0	107673	64098	33268
0	107679	64098	33258
0	107685	64098	33248
0	107691	64098	33238
0	107697	64098	33228
0	107703	64098	33218
0	107709	64098	33208
0	107715	64098	33198
0	107721	64098	33188
0	107727	64098	33178
0	107733	64098	33168
0	107739	64098	33158
0	107745	64098	33148
0	107751	64098	33138
0	107757	64098	33128
0	107763	64098	33118
0	107769	64098	33108
0	107775	64098	33098
0	107781	64098	33088
0	107787	64098	33078
0	107793	64098	33068
0	107799	64098	33058
0	107805	64098	33048
0	107811	64098	33038
0	107817	64098	33028
0	107823	64098	33018
0	107829	64098	33008
0	107835	64098	32998
0	107841	64098	32988
0	107847	64098	32978
0	107853	64098	32968
0	107859	64098	32958
0	107865	64098	32948
0	107871	64098	32938
0	107877	64098	32928
0	107883	64098	32918
0	107889	64098	32908
0	107895	64098	32898
0	107901	64098	32888
0	107907	64098	32878
0	107913	64098	32868
0	107919	64098	32858
0	107925	64098	32848
0	107931	64098	32838
0	107937	64098	32828
0	107943	64098	32818
0	107949	64098	32808
0	107955	64098	32798
0	107961	64098	32788
0	107967	64098	32778
0	107973	64098	32768
0	107979	64098	32758
0	107985	64098	32748
0	107991	64098	32738
0	107997	64098	32728
0	108003	64098	32718
0	108009	64098	32708
0	108015	64098	32698
0	108021	64098	32688
0	108027	64098	32678
0	108033	64098	32668
0	108039	64098	32658
0	108045	64098	32648
0	108051	64098	32638
0	108057	64098	32628
0	108063	64098	32618
0	108069	64098	32608
0	108075	64098	32598
0	108081	64098	32588
0	108087	64098	32578
0	108093	64098	32568
0	108099	64098	32558
0	108105	64098	32548
0	108111	64098	32538
0	108117	64098	32528
0	108123	64098	32518
0	108129	64098	32508
0	108135	64098	32498
0	108141	64098	32488
0	108147	64098	32478
0	108153	64098	32468
0	108159	64098	32458
0	108165	64098	32448
0	108171	64098	32438
0	108177	64098	32428
0	108183	64098	32418
0	108189	64098	32408
0	108195	64098	32398
0	108201	64098	32388
0	108207	64098	32378
0	108213	64098	32368
0	108219	64098	32358
0	108225	64098	32348
0	108231	64098	32338
0	108237	64098	32328
0	108243	64098	32318
0	108249	64098	32308
0	108255	64098	32298
0	108261	64098	32288
0	108267	64098	32278
0	108273	64098	32268
0	108279	64098	32258
0	108285	64098	32248
0	108291	64098	32238
0	108297	64098	32228
0	108303	64098	32218
0	108309	64098	32208
0	108315	64098	32198
0	108321	64098	32188
0	108327	64098	32178
0	108333	64098	32168
0	108339	64098	32158
0	108345	64098	32148
0	108351	64098	32138
0	108357	64098	32128
0	108363	64098	32118
0	108369	64098	32108
0	108375	64098	32098
0	108381	64098	32088
0	108387	64098	32078
0	108393	64098	32068
0	108399	64098	32058
0	108405	64098	32048
0	108411	64098	32038
0	108417	64098	32028
0	108423	64098	32018
0	108429	64098	32008
0	108435	64098	31998
0	108441	64098	31988
0	108447	64098	31978
0	108453	64098	31968
0	108459	64098	31958
0	108465	64098	31948
0	108471	64098	31938
0	108477	64098	31928
0	108483	64098	31918
0	108489	64098	31908
0	108495	64098	31898
0	108501	64098	31888
0	108507	64098	31878
0	108513	64098	31868
0	108519	64098	31858
0	108525	64098	31848
0	108531	64098	31838
0	108537	64098	31828
0	108543	64098	31818
0	108549	64098	31808
0	108555	64098	31798
0	108561	64098	31788
0	108567	64098	31778
0	108573	64098	31768
0	108579	64098	31758
0	108585	64098	31748
0	108591	64098	31738
0	108597	64098	31728
0	108603	64098	31718
0	108609	64098	31708
0	108615	64098	31698
0	108621	64098	31688
0	108627	64098	31678
0	108633	64098	31668
0	108639	64098	31658
0	108645	64098	31648
0	108651	64098	31638
0	108657	64098	31628
0	108663	64098	31618
0	108669	64098	31608
0	108675	64098	31598
0	108681	64098	31588
0	108687	64098	31578
0	108693	64098	31568
0	108699	64098	31558
0	108705	64098	31548
0	108711	64098	31538
0	108717	64098	31528
0	108723	64098	31518
0	108729	64098	31508
0	108735	64098	31498
0	108741	64098	31488
0	108747	64098	31478
0	108753	64098	31468
0	108759	64098	31458
0	108765	64098	31448
0	108771	64098	31438
0	108777	64098	31428
0	108783	64098	31418
0	108789	64098	31408
0	108795	64098	31398
0	108801	64098	31388
0	108807	64098	31378
0	108813	64098	31368
0	108819	64098	31358
0	108825	64098	31348
0	108831	64098	31338
0	108837	64098	31328
0	108843	64098	31318
0	108849	64098	31308
0	108855	64098	31298
0	108861	64098	31288
0	108867	64098	31278
0	108873	64098	31268
0	108879	64098	31258
0	108885	64098	31248
0	108891	64098	31238
0	108897	64098	31228
0	108903	64098	31218
0	108909	64098	31208
0	108915	64098	31198
0	108921	64098	31188
0	108927	64098	31178
0	108933	64098	31168
0	108939	64098	31158
0	108945	64098	31148
0	108951	64098	31138
0	108957	64098	31128
0	108963	64098	31118
0	108969	64098	31108
0	108975	64098	31098
0	108981	64098	31088
0	108987	64098	31078
0	108993	64098	31068
0	108999	64098	31058
0	109005	64098	31048
0	109011	64098	31038
0	109017	64098	31028
0	109023	64098	31018
0	109029	64098	31008
0	109035	64098	30998
0	109041	64098	30988
0	109047	64098	30978
0	109053	64098	30968
0	109059	64098	30958
0	109065	64098	30948
0	109071	64098	30938
0	109077	64098	30928
0	109083	64098	30918
0	109089	64098	30908
0	109095	64098	30898
0	109101	64098	30888
0	109107	64098	30878
0	109113	64098	30868
0	109119	64098	30858
0	109125	64098	30848
0	109131	64098	30838
0	109137	64098	30828
0	109143	64098	30818
0	109149	64098	30808
0	109155	64098	30798
0	109161	64098	30788
0	109167	64098	30778
0	109173	64098	30768
0	109179	64098	30758
0	109185	64098	30748
0	109191	64098	30738
0	109197	64098	30728
0	109203	64098	30718
0	109209	64098	30708
0	109215	64098	30698
0	109221	64098	30688
0	109227	64098	30678
0	109233	64098	30668
0	109239	64098	30658
0	109245	64098	30648
0	109251	64098	30638
0	109257	64098	30628
0	109263	64098	30618
0	109269	64098	30608
0	109275	64098	30598
0	109281	64098	30588
0	109287	64098	30578
0	109293	64098	30568
0	109299	64098	30558
0	109305	64098	30548
0	109311	64098	30538
0	109317	64098	30528
0	109323	64098	30518
0	109329	64098	30508
0	109335	64098	30498
0	109341	64098	30488
0	109347	64098	30478
0	109353	64098	30468
0	109359	64098	30458
0	109365	64098	30448
0	109371	64098	30438
0	109377	64098	30428
0	109383	64098	30418
0	109389	64098	30408
0	109395	64098	30398
0	109401	64098	30388
0	109407	64098	30378
0	109413	64098	30368
0	109419	64098	30358
0	109425	64098	30348
0	109431	64098	30338
0	109437	64098	30328
0	109443	64098	30318
0	109449	64098	30308
0	109455	64098	30298
0	109461	64098	30288
0	109467	64098	30278
0	109473	64098	30268
0	109479	64098	30258
0	109485	64098	30248
0	109491	64098	30238
0	109497	64098	30228
0	109503	64098	30218
0	109509	64098	30208
0	109515	64098	30198
0	109521	64098	30188
0	109527	64098	30178
0	109533	64098	30168
0	109539	64098	30158
0	109545	64098	30148
0	109551	64098	30138
0	109557	64098	30128
0	109563	64098	30118
0	109569	64098	30108
0	109575	64098	30098
0	109581	64098	30088
0	109587	64098	30078
0	109593	64098	30068
0	109599	64098	30058
0	109605	64098	30048
0	109611	64098	30038
0	109617	64098	30028
0	109623	64098	30018
0	109629	64098	30008
0	109635	64098	29998
0	109641	64098	29988
0	109647	64098	29978
0	109653	64098	29968
0	109659	64098	29958
0	109665	64098	29948
0	109671	64098	29938
0	109677	64098	29928
0	109683	64098	29918
0	109689	64098	29908
0	109695	64098	29898
0	109701	64098	29888
0	109707	64098	29878
0	109713	64098	29868
0	109719	64098	29858
0	109725	64098	29848
0	109731	64098	29838
0	109737	64098	29828
0	109743	64098	29818
0	109749	64098	29808
0	109755	64098	29798
0	109761	64098	29788
0	109767	64098	29778
0	109773	64098	29768
0	109779	64098	29758
0	109785	64098	29748
0	109791	64098	29738
0	109797	64098	29728
0	109803	64098	29718
0	109809	64098	29708
0	109815	64098	29698
0	109821	64098	29688
0	109827	64098	29678
0	109833	64098	29668
0	109839	64098	29658
0	109845	64098	29648
0	109851	64098	29638
0	109857	64098	29628
0	109863	64098	29618
0	109869	64098	29608
0	109875	64098	29598
0	109881	64098	29588
0	109887	64098	29578
0	109893	64098	29568
0	109899	64098	29558
0	109905	64098	29548
0	109911	64098	29538
0	109917	64098	29528
0	109923	64098	29518
0	109929	64098	29508
0	109935	64098	29498
0	109941	64098	29488
0	109947	64098	29478
0	109953	64098	29468
0	109959	64098	29458
0	109965	64098	29448
0	109971	64098	29438
0	109977	64098	29428
0	109983	64098	29418
0	109989	64098	29408
0	109995	64098	29398
0	110001	64098	29388
0	110007	64098	29378
0	110013	64098	29368
0	110019	64098	29358
0	110025	64098	29348
0	110031	64098	29338
0	110037	64098	29328
0	110043	64098	29318
0	110049	64098	29308
0	110055	64098	29298
0	110061	64098	29288
0	110067	64098	29278
0	110073	64098	29268
0	110079	64098	29258
0	110085	64098	29248
0	110091	64098	29238
0	110097	64098	29228
0	110103	64098	29218
0	110109	64098	29208
0	110115	64098	29198
0	110121	64098	29188
0	110127	64098	29178
0	110133	64098	29168
0	110139	64098	29158
0	110145	64098	29148
0	110151	64098	29138
0	110157	64098	29128
0	110163	64098	29118
0	110169	64098	29108
0	110175	64098	29098
0	110181	64098	29088
0	110187	64098	29078
0	110193	64098	29068
0	110199	64098	29058
0	110205	64098	29048
0	110211	64098	29038
0	110217	64098	29028
0	110223	64098	29018
0	110229	64098	29008
0	110235	64098	28998
0	110241	64098	28988
0	110247	64098	28978
0	110253	64098	28968
0	110259	64098	28958
0	110265	64098	28948
0	110271	64098	28938
0	110277	64098	28928
0	110283	64098	28918
0	110289	64098	28908
0	110295	64098	28898
0	110301	64098	28888
0	110307	64098	28878
0	110313	64098	28868
0	110319	64098	28858
0	110325	64098	28848
0	110331	64098	28838
0	110337	64098	28828
0	110343	64098	28818
0	110349	64098	28808
0	110355	64098	28798
0	110361	64098	28788
0	110367	64098	28778
0	110373	64098	28768
0	110379	64098	28758
0	110385	64098	28748
0	110391	64098	28738
0	110397	64098	28728
0	110403	64098	28718
0	110409	64098	28708
0	110415	64098	28698
0	110421	64098	28688
0	110427	64098	28678
0	110433	64098	28668
0	110439	64098	28658
0	110445	64098	28648
0	110451	64098	28638
0	110457	64098	28628
0	110463	64098	28618
0	110469	64098	28608
0	110475	64098	28598
0	110481	64098	28588
0	110487	64098	28578
0	110493	64098	28568
0	110499	64098	28558
0	110505	64098	28548
0	110511	64098	28538
0	110517	64098	28528
0	110523	64098	28518
0	110529	64098	28508
0	110535	64098	28498
0	110541	64098	28488
0	110547	64098	28478
0	110553	64098	28468
0	110559	64098	28458
0	110565	64098	28448
0	110571	64098	28438
0	110577	64098	28428
0	110583	64098	28418
0	110589	64098	28408
0	110595	64098	28398
0	110601	64098	28388
0	110607	64098	28378
0	110613	64098	28368
0	110619	64098	28358
0	110625	64098	28348
0	110631	64098	28338
0	110637	64098	28328
0	110643	64098	28318
0	110649	64098	28308
0	110655	64098	28298
0	110661	64098	28288
0	110667	64098	28278
0	110673	64098	28268
0	110679	64098	28258
0	110685	64098	28248
0	110691	64098	28238
0	110697	64098	28228
0	110703	64098	28218
0	110709	64098	28208
0	110715	64098	28198
0	110721	64098	28188
0	110727	64098	28178
0	110733	64098	28168
0	110739	64098	28158
0	110745	64098	28148
0	110751	64098	28138
0	110757	64098	28128
0	110763	64098	28118
0	110769	64098	28108
0	110775	64098	28098
0	110781	64098	28088
0	110787	64098	28078
0	110793	64098	28068
0	110799	64098	28058
0	110805	64098	28048
0	110811	64098	28038
0	110817	64098	28028
0	110823	64098	28018
0	110829	64098	28008
0	110835	64098	27998
0	110841	64098	27988
0	110847	64098	27978
0	110853	64098	27968
0	110859	64098	27958
0	110865	64098	27948
0	110871	64098	27938
0	110877	64098	27928
0	110883	64098	27918
0	110889	64098	27908
0	110895	64098	27898
0	110901	64098	27888
0	110907	64098	27878
0	110913	64098	27868
0	110919	64098	27858
0	110925	64098	27848
0	110931	64098	27838
0	110937	64098	27828
0	110943	64098	27818
0	110949	64098	27808
0	110955	64098	27798
0	110961	64098	27788
0	110967	64098	27778
0	110973	64098	27768
0	110979	64098	27758
0	110985	64098	27748
0	110991	64098	27738
0	110997	64098	27728
0	111003	64098	27718
0	111009	64098	27708
0	111015	64098	27698
0	111021	64098	27688
0	111027	64098	27678
0	111033	64098	27668
0	111039	64098	27658
0	111045	64098	27648
0	111051	64098	27638
0	111057	64098	27628
0	111063	64098	27618
0	111069	64098	27608
0	111075	64098	27598
0	111081	64098	27588
0	111087	64098	27578
0	111093	64098	27568
0	111099	64098	27558
0	111105	64098	27548
0	111111	64098	27538
0	111117	64098	27528
0	111123	64098	27518
0	111129	64098	27508
0	111135	64098	27498
0	111141	64098	27488
0	111147	64098	27478
0	111153	64098	27468
0	111159	64098	27458
0	111165	64098	27448
0	111171	64098	27438
0	111177	64098	27428
0	111183	64098	27418
0	111189	64098	27408
0	111195	64098	27398
0	111201	64098	27388
0	111207	64098	27378
0	111213	64098	27368
0	111219	64098	27358
0	111225	64098	27348
0	111231	64098	27338
0	111237	64098	27328
0	111243	64098	27318
0	111249	64098	27308
0	111255	64098	27298
0	111261	64098	27288
0	111267	64098	27278
0	111273	64098	27268
0	111279	64098	27258
0	111285	64098	27248
0	111291	64098	27238
0	111297	64098	27228
0	111303	64098	27218
0	111309	64098	27208
0	111315	64098	27198
0	111321	64098	27188
0	111327	64098	27178
0	111333	64098	27168
0	111339	64098	27158
0	111345	64098	27148
0	111351	64098	27138
0	111357	64098	27128
0	111363	64098	27118
0	111369	64098	27108
0	111375	64098	27098
0	111381	64098	27088
0	111387	64098	27078
0	111393	64098	27068
0	111399	64098	27058
0	111405	64098	27048
0	111411	64098	27038
0	111417	64098	27028
0	111423	64098	27018
0	111429	64098	27008
0	111435	64098	26998
0	111441	64098	26988
0	111447	64098	26978
0	111453	64098	26968
0	111459	64098	26958
0	111465	64098	26948
0	111471	64098	26938
0	111477	64098	26928
0	111483	64098	26918
0	111489	64098	26908
0	111495	64098	26898
0	111501	64098	26888
0	111507	64098	26878
0	111513	64098	26868
0	111519	64098	26858
0	111525	64098	26848
0	111531	64098	26838
0	111537	64098	26828
0	111543	64098	26818
0	111549	64098	26808
0	111555	64098	26798
0	111561	64098	26788
0	111567	64098	26778
0	111573	64098	26768
0	111579	64098	26758
0	111585	64098	26748
0	111591	64098	26738
0	111597	64098	26728
0	111603	64098	26718
0	111609	64098	26708
0	111615	64098	26698
0	111621	64098	26688
0	111627	64098	26678
0	111633	64098	26668
0	111639	64098	26658
0	111645	64098	26648
0	111651	64098	26638
0	111657	64098	26628
0	111663	64098	26618
0	111669	64098	26608
0	111675	64098	26598
0	111681	64098	26588
0	111687	64098	26578
0	111693	64098	26568
0	111699	64098	26558
0	111705	64098	26548
0	111711	64098	26538
0	111717	64098	26528
0	111723	64098	26518
0	111729	64098	26508
0	111735	64098	26498
0	111741	64098	26488
0	111747	64098	26478
0	111753	64098	26468
0	111759	64098	26458
0	111765	64098	26448
0	111771	64098	26438
0	111777	64098	26428
0	111783	64098	26418
0	111789	64098	26408
0	111795	64098	26398
0	111801	64098	26388
0	111807	64098	26378
0	111813	64098	26368
0	111819	64098	26358
0	111825	64098	26348
0	111831	64098	26338
0	111837	64098	26328
0	111843	64098	26318
0	111849	64098	26308
[...]
0	154368	72170	3130
0	154374	72170	3120
0	154380	72170	3110
0	154386	72170	3100
0	154392	72170	3090
0	154398	72170	3080
0	154404	72170	3070
0	154410	72170	3060
0	154416	72170	3050
0	154422	72170	3040
0	154428	72170	3030
0	154434	72170	3020
0	154440	72170	3010
0	154446	72170	3000
0	154452	72170	2990
0	154458	72170	2980
0	154464	72170	2970
0	154470	72170	2960
0	154476	72170	2950
0	154482	72170	2940
0	154488	72170	2930
0	154494	72170	2920
0	154500	72170	2910
0	154506	72170	2900
0	154512	72170	2890
0	154518	72170	2880
0	154524	72170	2870
0	154530	72170	2860
0	154536	72170	2850
0	154542	72170	2840
0	154548	72170	2830
0	154554	72170	2820
0	154560	72170	2810
0	154566	72170	2800
0	154572	72170	2790
0	154578	72170	2780
0	154584	72170	2770
0	154590	72170	2760
0	154596	72170	2750
0	154602	72170	2740
0	154608	72170	2730
0	154614	72170	2720
0	154620	72170	2710
0	154626	72170	2700
0	154632	72170	2690
0	154638	72170	2680
0	154644	72170	2670
0	154650	72170	2660
0	154656	72170	2650
0	154662	72170	2640
0	154668	72170	2630
0	154674	72170	2620
0	154680	72170	2610
0	154686	72170	2600
0	154692	72170	2590
0	154698	72170	2580
0	154704	72170	2570
0	154710	72170	2560
0	154716	72170	2550
0	154722	72170	2540
0	154728	72170	2530
0	154734	72170	2520
0	154740	72170	2510
0	154746	72170	2500
0	154752	72170	2490
0	154758	72170	2480
0	154764	72170	2470
0	154770	72170	2460
0	154776	72170	2450
0	154782	72170	2440
0	154788	72170	2430
0	154794	72170	2420
0	154800	72170	2410
0	154806	72170	2400
0	154812	72170	2390
0	154818	72170	2380
0	154824	72170	2370
0	154830	72170	2360
0	154836	72170	2350
0	154842	72170	2340
0	154848	72170	2330
0	154854	72170	2320
0	154860	72170	2310
0	154866	72170	2300
0	154872	72170	2290
0	154878	72170	2280
0	154884	72170	2270
0	154890	72170	2260
0	154896	72170	2250
0	154902	72170	2240
0	154908	72170	2230
0	154914	72170	2220
0	154920	72170	2210
0	154926	72170	2200
0	154932	72170	2190
0	154938	72170	2180
0	154944	72170	2170
0	154950	72170	2160
0	154956	72170	2150
0	154962	72170	2140
0	154968	72170	2130
0	154974	72170	2120
0	154980	72170	2110
0	154986	72170	2100
0	154992	72170	2090
0	154998	72170	2080
0	155004	72170	2070
0	155010	72170	2060
0	155016	72170	2050
0	155022	72170	2040
0	155028	72170	2030
0	155034	72170	2020
0	155040	72170	2010
0	155046	72170	2000
0	155052	72170	1990
0	155058	72170	1980
0	155064	72170	1970
0	155070	72170	1960
0	155076	72170	1950
0	155082	72170	1940
0	155088	72170	1930
0	155094	72170	1920
0	155100	72170	1910
0	155106	72170	1900
0	155112	72170	1890
0	155118	72170	1880
0	155124	72170	1870
0	155130	72170	1860
0	155136	72170	1850
0	155142	72170	1840
0	155148	72170	1830
0	155154	72170	1820
0	155160	72170	1810
0	155166	72170	1800
0	155172	72170	1790
0	155178	72170	1780
0	155184	72170	1770
0	155190	72170	1760
0	155196	72170	1750
0	155202	72170	1740
0	155208	72170	1730
0	155214	72170	1720
0	155220	72170	1710
0	155226	72170	1700
0	155232	72170	1690
0	155238	72170	1680
0	155244	72170	1670
0	155250	72170	1660
0	155256	72170	1650
0	155262	72170	1640
0	155268	72170	1630
0	155274	72170	1620
0	155280	72170	1610
0	155286	72170	1600
0	155292	72170	1590
0	155298	72170	1580
0	155304	72170	1570
0	155310	72170	1560
0	155316	72170	1550
0	155322	72170	1540
0	155328	72170	1530
0	155334	72170	1520
0	155340	72170	1510
0	155346	72170	1500
0	155352	72170	1490
0	155358	72170	1480
0	155364	72170	1470
0	155370	72170	1460
0	155376	72170	1450
0	155382	72170	1440
0	155388	72170	1430
0	155394	72170	1420
0	155400	72170	1410
0	155406	72170	1400
0	155412	72170	1390
0	155418	72170	1380
0	155424	72170	1370
0	155430	72170	1360
0	155436	72170	1350
0	155442	72170	1340
0	155448	72170	1330
0	155454	72170	1320
0	155460	72170	1310
0	155466	72170	1300
0	155472	72170	1290
0	155478	72170	1280
0	155484	72170	1270
0	155490	72170	1260
0	155496	72170	1250
0	155502	72170	1240
0	155508	72170	1230
0	155514	72170	1220
0	155520	72170	1210
0	155526	72170	1200
0	155532	72170	1190
0	155538	72170	1180
0	155544	72170	1170
0	155550	72170	1160
0	155556	72170	1150
0	155562	72170	1140
0	155568	72170	1130
0	155574	72170	1120
0	155580	72170	1110
0	155586	72170	1100
0	155592	72170	1090
0	155598	72170	1080
0	155604	72170	1070
0	155610	72170	1060
0	155616	72170	1050
0	155622	72170	1040
0	155628	72170	1030
0	155634	72170	1020
0	155640	72170	1010
0	155646	72170	1000
0	155652	72170	990
0	155658	72170	980
0	155664	72170	970
0	155670	72170	960
0	155676	72170	950
0	155682	72170	940
0	155688	72170	930
0	155694	72170	920
0	155700	72170	910
0	155706	72170	900
0	155712	72170	890
0	155718	72170	880
0	155724	72170	870
0	155730	72170	860
0	155736	72170	850
0	155742	72170	840
0	155766	72180	840
0	155794	72190	840
0	155824	72200	840
0	155853	72210	840
0	155882	72220	840
0	155915	72230	840
0	155945	72240	840
0	155977	72250	840
0	156008	72260	840
0	156039	72270	840
0	157674	72933	833
0	157719	72943	833
0	157764	72953	833
0	157809	72963	833
0	157854	72973	833
0	157901	72983	833
0	157948	72993	833
0	157993	73003	833
0	158038	73013	833
0	158085	73023	833
0	158130	73033	833
0	158174	73043	833
0	158220	73053	833
0	158264	73063	833
0	158311	73073	833
0	158356	73083	833
0	158401	73093	833
0	158446	73103	833
0	158623	73113	1673
0	158639	73113	1663
0	158645	73113	1653
0	158651	73113	1643
0	158657	73113	1633
0	158663	73113	1623
0	158669	73113	1613
0	158675	73113	1603
0	158681	73113	1593
0	158687	73113	1583
0	158693	73113	1573
0	158699	73113	1563
0	158705	73113	1553
0	158711	73113	1543
0	158717	73113	1533
0	158723	73113	1523
0	158729	73113	1513
0	158735	73113	1503
0	158741	73113	1493
0	158747	73113	1483
0	158753	73113	1473
0	158759	73113	1463
0	158765	73113	1453
0	158771	73113	1443
0	158777	73113	1433
0	158783	73113	1423
0	158789	73113	1413
0	158795	73113	1403
0	158801	73113	1393
0	158807	73113	1383
0	158813	73113	1373
0	158819	73113	1363
0	158825	73113	1353
0	158831	73113	1343
0	158837	73113	1333
0	158843	73113	1323
0	158849	73113	1313
0	158855	73113	1303
0	158861	73113	1293
0	158867	73113	1283
0	158873	73113	1273
0	158879	73113	1263
0	158885	73113	1253
0	158891	73113	1243
0	158897	73113	1233
0	158903	73113	1223
0	158909	73113	1213
0	158915	73113	1203
0	158921	73113	1193
0	158927	73113	1183
0	158933	73113	1173
0	158939	73113	1163
0	158945	73113	1153
0	158951	73113	1143
0	158957	73113	1133
0	158963	73113	1123
0	158969	73113	1113
0	158975	73113	1103
0	158981	73113	1093
0	158987	73113	1083
0	158993	73113	1073
0	158999	73113	1063
0	159005	73113	1053
0	159011	73113	1043
0	159017	73113	1033
0	159023	73113	1023
0	159029	73113	833
0	159069	73123	833
0	159116	73133	833
0	159163	73143	833
0	159210	73153	833
0	159257	73163	833
0	159304	73173	833
0	159351	73183	833
0	159398	73193	833
0	159451	73203	833
0	159502	73213	833
0	159551	73223	833
0	159602	73233	833
0	159655	73243	833
0	159707	73253	833
0	159759	73263	833
0	159812	73273	833
0	159863	73283	833
0	159917	73293	833
0	159971	73303	833
0	160025	73313	833
0	160080	73323	833
0	160133	73333	833
0	160186	73343	833
0	160241	73353	833
0	160295	73363	833
0	160349	73373	833
0	160403	73383	833
0	160457	73393	833
0	160511	73403	833
0	160568	73413	833
0	160625	73423	833
0	160684	73433	833
0	160741	73443	833
0	160797	73453	833
0	160853	73463	833
0	160909	73473	833
0	160965	73483	833
0	161021	73493	833
0	161077	73503	833
0	161133	73513	833
0	161189	73523	833
0	161245	73533	833
0	161301	73543	833
0	161357	73553	833
0	161413	73563	833
0	161471	73573	833
0	161527	73583	833
0	161583	73593	833
0	161639	73603	833
0	161695	73613	833
0	161751	73623	833
0	161807	73633	833
0	161863	73643	833
0	161922	73653	833
0	161981	73663	833
0	162038	73673	833
0	162095	73683	833
0	162152	73693	833
0	162208	73703	833
0	162264	73713	833
0	162320	73723	833
0	162376	73733	833
0	162432	73743	833
0	162488	73753	833
0	162544	73763	833
0	162600	73773	833
0	162656	73783	833
0	162712	73793	833
0	162768	73803	833
0	162824	73813	833
0	162880	73823	833
0	162936	73833	833
0	162992	73843	833
0	163048	73853	833
0	163106	73863	833
0	163162	73873	833
0	163220	73883	833
0	163276	73893	833
0	163332	73903	833
0	163391	73913	833
0	163448	73923	833
0	163507	73933	833
0	163564	73943	833
0	163623	73953	833
0	163682	73963	833
0	163740	73973	833
0	163801	73983	833
0	163863	73993	833
0	163923	74003	833
0	163983	74013	833
0	164043	74023	833
0	164103	74033	833
0	164165	74043	833
0	164226	74053	833
0	164291	74063	833
0	164353	74073	833
0	164418	74083	833
0	164481	74093	833
0	164544	74103	833
0	164607	74113	833
0	164670	74123	833
0	164733	74133	833
0	164796	74143	833
0	164859	74153	833
0	164922	74163	833
0	164985	74173	833
0	165048	74183	833
0	165114	74193	833
0	165178	74203	833
0	165242	74213	833
0	165306	74223	833
0	165372	74233	833
0	165436	74243	833
0	165505	74253	833
0	165572	74263	833
0	165638	74273	833
0	165708	74283	833
0	165774	74293	833
0	165840	74303	833
0	165906	74313	833
0	165972	74323	833
0	166038	74333	833
0	166104	74343	833
0	166170	74353	833
0	166236	74363	833
0	166302	74373	833
0	166368	74383	833
0	166436	74393	833
0	166503	74403	833
0	166570	74413	833
0	166637	74423	833
0	166704	74433	833
0	166771	74443	833
0	166838	74453	833
0	166905	74463	833
0	166972	74473	833
0	167039	74483	833
0	167106	74493	833
0	167176	74503	833
0	167249	74513	833
0	167321	74523	833
0	167391	74533	833
0	167461	74543	833
0	167531	74553	833
0	167601	74563	833
0	167671	74573	833
0	167743	74583	833
0	167813	74593	833
0	167885	74603	833
0	167956	74613	833
0	168027	74623	833
0	168100	74633	833
0	168171	74643	833
0	168242	74653	833
0	168313	74663	833
0	168388	74673	833
0	168460	74683	833
0	168539	74693	833
0	168617	74703	833
0	168691	74713	833
0	168767	74723	833
0	168841	74733	833
0	168915	74743	833
0	168991	74753	833
0	169065	74763	833
0	169139	74773	833
0	169213	74783	833
0	169287	74793	833
0	169361	74803	833
0	169435	74813	833
0	169509	74823	833
0	169583	74833	833
0	169657	74843	833
0	169731	74853	833
0	169806	74863	833
0	169882	74873	833
0	169957	74883	833
0	170032	74893	833
0	170107	74903	833
0	170184	74913	833
0	170259	74923	833
0	170334	74933	833
0	170409	74943	833
0	170484	74953	833
0	170559	74963	833
0	170634	74973	833
0	170711	74983	833
0	170787	74993	833
0	170863	75003	833
0	170939	75013	833
0	171015	75023	833
0	171088	75033	833
0	171157	75043	833
0	171227	75053	833
0	171296	75063	833
0	171365	75073	833
0	171434	75083	833
0	171503	75093	833
0	171572	75103	833
0	171643	75113	833
0	171712	75123	833
0	171781	75133	833
0	171850	75143	833
0	171927	75153	833
0	171995	75163	833
0	172063	75173	833
0	172131	75183	833
0	172199	75193	833
0	172269	75203	833
0	172340	75213	833
0	172409	75223	833
0	172480	75233	833
0	172552	75243	833
0	172624	75253	833
0	172694	75263	833
0	172764	75273	833
0	172834	75283	833
0	172908	75293	833
0	172978	75303	833
0	173048	75313	833
0	173120	75323	833
0	173191	75333	833
0	173262	75343	833
0	173333	75353	833
0	173404	75363	833
0	173477	75373	833
0	173552	75383	833
0	173625	75393	833
0	173698	75403	833
0	173771	75413	833
0	173848	75423	833
0	173921	75433	833
0	173994	75443	833
0	174067	75453	833
0	174140	75463	833
0	174216	75473	833
0	174290	75483	833
0	174364	75493	833
0	174440	75503	833
0	174514	75513	833
0	174588	75523	833
0	174662	75533	833
0	174736	75543	833
0	174813	75553	833
0	174889	75563	833
0	174964	75573	833
0	175039	75583	833
0	175114	75593	833
0	175191	75603	833
0	175267	75613	833
0	175344	75623	833
0	175420	75633	833
0	175496	75643	833
0	175572	75653	833
0	175650	75663	833
0	175730	75673	833
0	175808	75683	833
0	175886	75693	833
0	175967	75703	833
0	176045	75713	833
0	176125	75723	833
0	176204	75733	833
0	176282	75743	833
0	176360	75753	833
0	176439	75763	833
0	176517	75773	833
0	176595	75783	833
0	176677	75793	833
0	176755	75803	833
0	176833	75813	833
0	176913	75823	833
0	176991	75833	833
0	177068	75843	833
0	177145	75853	833
0	177222	75863	833
0	177299	75873	833
0	177382	75883	833
0	177460	75893	833
0	177538	75903	833
0	177616	75913	833
0	177694	75923	833
0	177772	75933	833
0	177849	75943	833
0	177929	75953	833
0	178006	75963	833
0	178083	75973	833
0	178160	75983	833
0	178238	75993	833
0	178314	76003	833
0	178395	76013	833
0	178478	76023	833
0	178557	76033	833
0	178636	76043	833
0	178719	76053	833
0	178799	76063	833
0	178878	76073	833
0	178958	76083	833
0	179039	76093	833
0	179120	76103	833
0	179200	76113	833
0	179279	76123	833
0	179358	76133	833
0	179437	76143	833
0	179517	76153	833
0	179596	76163	833
0	179675	76173	833
0	179755	76183	833
0	179832	76193	833
0	179908	76203	833
0	179990	76213	833
0	180069	76223	833
0	180147	76233	833
0	180228	76243	833
0	180306	76253	833
0	180384	76263	833
0	180465	76273	833
0	180543	76283	833
0	180620	76293	833
0	180697	76303	833
0	180775	76313	833
0	180852	76323	833
0	180932	76333	833
0	181009	76343	833
0	181086	76353	833
0	181163	76363	833
0	181240	76373	833
0	181319	76383	833
0	181396	76393	833
0	181473	76403	833
0	181551	76413	833
0	181628	76423	833
0	181705	76433	833
0	181783	76443	833
0	181861	76453	833
0	181938	76463	833
0	182014	76473	833
0	182093	76483	833
0	182173	76493	833
0	182251	76503	833
0	182329	76513	833
0	182407	76523	833
0	182485	76533	833
0	182568	76543	833
0	182646	76553	833
0	182725	76563	833
0	182804	76573	833
0	182881	76583	833
0	182959	76593	833
0	183037	76603	833
0	183116	76613	833
0	183203	76623	833
0	183284	76633	833
0	183362	76643	833
0	183444	76653	833
0	183526	76663	833
0	183606	76673	833
0	183686	76683	833
0	183766	76693	833
0	183846	76703	833
0	183928	76713	833
0	184009	76723	833
0	184092	76733	833
0	184175	76743	833
0	184256	76753	833
0	184337	76763	833
0	184418	76773	833
0	184501	76783	833
0	184586	76793	833
0	184667	76803	833
0	184754	76813	833
0	184842	76823	833
0	184928	76833	833
0	185013	76843	833
0	185099	76853	833
0	185184	76863	833
0	185269	76873	833
0	185354	76883	833
0	185441	76893	833
0	185526	76903	833
0	185613	76913	833
0	185698	76923	833
0	185783	76933	833
0	185867	76943	833
0	185952	76953	833
0	186033	76963	833
0	186116	76973	833
0	186197	76983	833
0	186277	76993	833
0	186357	77003	833
0	186437	77013	833
0	186518	77023	833
0	186597	77033	833
0	186678	77043	833
0	186757	77053	833
0	186836	77063	833
0	186915	77073	833
0	186994	77083	833
0	187073	77093	833
0	187155	77103	833
0	187235	77113	833
0	187315	77123	833
0	187395	77133	833
0	187476	77143	833
0	187557	77153	833
0	187638	77163	833
0	187719	77173	833
0	187799	77183	833
0	187878	77193	833
0	187957	77203	833
0	188039	77213	833
0	188119	77223	833
0	188199	77233	833
0	188278	77243	833
0	188357	77253	833
0	188435	77263	833
0	188512	77273	833
0	188591	77283	833
0	188669	77293	833
0	188746	77303	833
0	188824	77313	833
0	188901	77323	833
0	188979	77333	833
0	189058	77343	833
0	189136	77353	833
0	189214	77363	833
0	189292	77373	833
0	189370	77383	833
0	189448	77393	833
0	189526	77403	833
0	189606	77413	833
0	189684	77423	833
0	189762	77433	833
0	189839	77443	833
0	189916	77453	833
0	189993	77463	833
0	190070	77473	833
0	190147	77483	833
0	190224	77493	833
0	190301	77503	833
0	190380	77513	833
0	190457	77523	833
0	190535	77533	833
0	190615	77543	833
0	190696	77553	833
0	190775	77563	833
0	190854	77573	833
0	190934	77583	833
0	191014	77593	833
0	191095	77603	833
0	191177	77613	833
0	191257	77623	833
0	191340	77633	833
0	191423	77643	833
0	191507	77653	833
0	191587	77663	833
0	191669	77673	833
0	191750	77683	833
0	191831	77693	833
0	191912	77703	833
0	191993	77713	833
0	192074	77723	833
0	192155	77733	833
0	192236	77743	833
0	192317	77753	833
0	192397	77763	833
0	192477	77773	833
0	192558	77783	833
0	196797	78623	1663
0	196826	78623	1653
0	196832	78623	1643
0	196838	78623	1633
0	196844	78623	1623
0	196850	78623	1613
0	196856	78623	1603
0	196862	78623	1593
0	196868	78623	1583
0	196874	78623	1573
0	196880	78623	1563
0	196886	78623	1553
0	196892	78623	1543
0	196898	78623	1533
0	196904	78623	1523
0	196910	78623	1513
0	196916	78623	1503
0	196922	78623	1493
0	196928	78623	1483
0	196934	78623	1473
0	196940	78623	1463
0	196946	78623	1453
0	196952	78623	1443
0	196958	78623	1433
0	196964	78623	1423
0	196970	78623	1413
0	196976	78623	1403
0	196982	78623	1393
0	196988	78623	1383
0	196994	78623	1373
0	197000	78623	1363
0	197006	78623	1353
0	197012	78623	1343
0	197018	78623	1333
0	197024	78623	1323
0	197030	78623	1313
0	197036	78623	1303
0	197042	78623	1293
0	197048	78623	1283
0	197054	78623	1273
0	197060	78623	1263
0	197066	78623	1253
0	197072	78623	1243
0	197078	78623	1233
0	197084	78623	1223
0	197090	78623	1213
0	197096	78623	1203
0	197102	78623	1193
0	197108	78623	1183
0	197114	78623	1173
0	197120	78623	1163
0	197126	78623	1153
0	197132	78623	1143
0	197138	78623	1133
0	197144	78623	1123
0	197150	78623	1113
0	197156	78623	1103
0	197162	78623	1093
0	197168	78623	1083
0	197174	78623	1073
0	197180	78623	1063
0	197186	78623	1053
0	197192	78623	1043
0	197198	78623	1033
0	197204	78623	1023
0	197210	78623	1013
0	197216	78623	1003
0	197222	78623	993
0	197228	78623	983
0	197234	78623	973
0	197240	78623	963
0	197246	78623	953
0	197252	78623	943
0	197258	78623	933
0	197264	78623	923
0	197270	78623	913
0	197276	78623	903
0	197282	78623	893
0	197288	78623	883
0	197294	78623	873
0	197300	78623	863
0	197306	78623	853
0	197312	78623	843
0	197318	78623	833
0	197371	78633	833
0	197447	78643	833
0	197522	78653	833
0	197597	78663	833
0	197672	78673	833
0	197749	78683	833
0	197825	78693	833
0	197901	78703	833
0	197977	78713	833
0	198053	78723	833
0	198128	78733	833
0	198203	78743	833
0	198278	78753	833
0	198353	78763	833
0	198428	78773	833
0	198505	78783	833
0	198580	78793	833
0	198655	78803	833
0	198730	78813	833
0	198805	78823	833
0	198880	78833	833
0	198954	78843	833
0	199029	78853	833
0	199102	78863	833
0	199175	78873	833
0	199248	78883	833
0	199320	78893	833
0	203277	79733	1663
0	203286	79733	1653
0	203292	79733	1643
0	203298	79733	1633
0	203304	79733	1623
0	203310	79733	1613
0	203316	79733	1603
0	203322	79733	1593
0	203328	79733	1583
0	203334	79733	1573
0	203340	79733	1563
0	203346	79733	1553
0	203352	79733	1543
0	203358	79733	1533
0	203364	79733	1523
0	203370	79733	1513
0	203376	79733	1503
0	203382	79733	1493
0	203388	79733	1483
0	203394	79733	1473
0	203400	79733	1463
0	203406	79733	1453
0	203412	79733	1443
0	203418	79733	1433
0	203424	79733	1423
0	203430	79733	1413
0	203436	79733	1403
0	203442	79733	1393
0	203448	79733	1383
0	203454	79733	1373
0	203460	79733	1363
0	203466	79733	1353
0	203472	79733	1343
0	203478	79733	1333
0	203484	79733	1323
0	203490	79733	1313
0	203496	79733	1303
0	203502	79733	1293
0	203508	79733	1283
0	203514	79733	1273
0	203520	79733	1263
0	203526	79733	1253
0	203532	79733	1243
0	203538	79733	1233
0	203544	79733	1223
0	203550	79733	1213
0	203556	79733	1203
0	203562	79733	1193
0	203568	79733	1183
0	203574	79733	1173
0	203580	79733	1163
0	203586	79733	1153
0	203592	79733	1143
0	203598	79733	1133
0	203604	79733	1123
0	203610	79733	1113
0	203616	79733	1103
0	203622	79733	1093
0	203628	79733	1083
0	203634	79733	1073
0	203640	79733	1063
0	203646	79733	1053
0	203652	79733	1043
0	203658	79733	1033
0	203664	79733	1023
0	203670	79733	1013
0	203676	79733	1003
0	203682	79733	993
0	203688	79733	983
0	203694	79733	973
0	203700	79733	963
0	203706	79733	953
0	203712	79733	943
0	203718	79733	933
0	203724	79733	923
0	203730	79733	913
0	203736	79733	903
0	203742	79733	893
0	203748	79733	883
0	203754	79733	873
0	203760	79733	863
0	203766	79733	853
0	203772	79733	843
0	203778	79733	833
0	203837	79743	833
0	203899	79753	833
0	203960	79763	833
0	204021	79773	833
0	204082	79783	833
0	204143	79793	833
0	204204	79803	833
0	204265	79813	833
0	204325	79823	833
0	204385	79833	833
0	204445	79843	833
0	204505	79853	833
0	204564	79863	833
0	204623	79873	833
0	204682	79883	833
0	204741	79893	833
0	204800	79903	833
0	204859	79913	833
0	204918	79923	833
0	204978	79933	833
0	205037	79943	833
0	205096	79953	833
0	205155	79963	833
0	205214	79973	833
0	205273	79983	833
0	205331	79993	833
0	205354	80003	833
0	205377	80013	833
0	205400	80023	833
0	205423	80033	833
0	205446	80043	833
0	205469	80053	833
0	205493	80063	833
0	205516	80073	833
0	205539	80083	833
0	205562	80093	833
0	205584	80103	833
0	205605	80113	833
0	205626	80123	833
0	205647	80133	833
0	205671	80143	833
0	205695	80153	833
0	205717	80163	833


