version 2
run General-0-20250112-07:26:01-76396
attr configname General
attr datetime 20250112-07:26:01
attr experiment General
attr inifile shaw.ini
attr iterationvars ""
attr iterationvarsf ""
attr measurement ""
attr network src.dtnsim
attr processid 76396
attr repetition 0
attr replication #0
attr resultdir results
attr runnumber 0
attr seedset 0
param dtnsim.central.contactsFile "\"contactPlan/shaw_contact1.txt\""
param dtnsim.central.contactIdsToDelete_from_celestialA "\"11 22 28 30 32 37 54 60 61 79 85 92 97 110 120 124 130 145 148 157 164 168 184 185 186 207 211 212 229 232 248 255 257 266 267 274 283 285 310 317 319 321 325 328 337 342 345 374 377 387 395 405 407 412 421 426 428 436 438 452 454 473 474 480 502 504 512 540 545 547 549 554 557 570 575 585 588 590 601 602 606 641 642 646 647 657 661 662 673 689 691 693 715 728 735 737 743 745 750 759 763 770 773 786 787 796 802 803 809 811 813 817 827 829 837 842 846 854 861 871 880 885 898 906 909 911 944 947 991 996 998\""
param dtnsim.central.contactIdsToDelete_from_celestialB "\"4 12 18 25 29 40 41 44 45 49 53 55 58 66 71 73 78 84 89 91 114 116 122 133 143 171 190 193 195 201 208 214 217 218 224 227 233 238 250 253 258 263 264 265 268 276 280 287 295 297 299 306 320 326 333 338 340 346 347 355 361 362 367 378 385 394 396 430 433 435 442 446 448 451 460 466 467 471 481 488 490 495 500 503 506 509 511 513 527 528 530 538 542 546 562 566 568 571 573 574 584 589 594 600 605 616 617 620 627 629 630 633 643 658 671 681 688 708 710 712 717 725 736 739 751 758 761 772 779 781 784 791 792 798 804 805 808 814 825 828 830 839 844 853 858 866 868 869 884 886 892 894 895 897 899 913 922 929 930 931 936 943 948 952 978 985 997 999 1000\""
param dtnsim.central.celestialA_nodes "\"1 2 3\""
param dtnsim.central.celestialB_nodes "\"4 5 6\""
param dtnsim.central.locallyfaultsAware true
param dtnsim.central.mode_two_celestial true
param dtnsim.nodesNumber 6
param dtnsim.node[1].icon "\"receiverdish\""
param dtnsim.node[2..5].icon "\"satellite\""
param dtnsim.node[6].icon "\"receiverdish\""
param dtnsim.node[*].dtn.routing "\"cgrModel350\""
param dtnsim.node[*].dtn.routingType "\"routeListType:allPaths-firstEnding,volumeAware:allContacts,extensionBlock:on,contactPlan:global\""
param dtnsim.node[1].app.enable true
param dtnsim.node[*].app.custodyTransfer true
param dtnsim.node[1].app.bundlesNumber "\"5000\""
param dtnsim.node[1].app.start "\"0\""
param dtnsim.node[1].app.destinationEid "\"6\""
param dtnsim.node[1].app.size "\"1500\""
param dtnsim.node[1].app.interval 0.2

vector 0 dtnsim.node[6].app appBundleReceivedDelayvec:vector ETV
attr interpolationmode none
attr source appBundleReceivedDelay
attr title "appBundleReceivedDelayvec, vector"
0	6182	60.4	60.4
0	6183	60.4	60.2
0	6184	60.4	60
0	6185	60.4	59.8
0	6186	60.4	59.6
0	6187	60.4	59.4
0	6188	60.4	59.2
0	6189	60.4	59
0	6190	60.4	58.8
0	6191	60.4	58.6
0	6192	60.4	58.4
0	6193	60.4	58.2
0	6194	60.4	58
0	6195	60.4	57.8
0	6196	60.4	57.6
0	6197	60.4	57.4
0	6198	60.4	57.2
0	6199	60.4	57
0	6200	60.4	56.8
0	6201	60.4	56.6
0	6202	60.4	56.4
0	6203	60.4	56.2
0	6204	60.4	56
0	6205	60.4	55.8
0	6206	60.4	55.6
0	6207	60.4	55.4
0	6208	60.4	55.2
0	6209	60.4	55
0	6210	60.4	54.8
0	6211	60.4	54.6
0	6212	60.4	54.4
0	6213	60.4	54.2
0	6214	60.4	54
0	6215	60.4	53.8
0	6216	60.4	53.6
0	6217	60.4	53.4
0	6218	60.4	53.2
0	6219	60.4	53
0	6220	60.4	52.8
0	6221	60.4	52.6
0	6222	60.4	52.4
0	6223	60.4	52.2
0	6224	60.4	52
0	6225	60.4	51.8
0	6226	60.4	51.6
0	6227	60.4	51.4
0	6228	60.4	51.2
0	6229	60.4	51
0	6230	60.4	50.8
0	6231	60.4	50.6
0	6232	60.4	50.4
0	6233	60.4	50.2
0	6234	60.4	50
0	6235	60.4	49.8
0	6236	60.4	49.6
0	6237	60.4	49.4
0	6238	60.4	49.2
0	6239	60.4	49
0	6240	60.4	48.8
0	6241	60.4	48.6
0	6242	60.4	48.4
0	6243	60.4	48.2
0	6244	60.4	48
0	6245	60.4	47.8
0	6246	60.4	47.6
0	6247	60.4	47.4
0	6248	60.4	47.2
0	6249	60.4	47
0	6250	60.4	46.8
0	6251	60.4	46.6
0	6252	60.4	46.4
0	6253	60.4	46.2
0	6254	60.4	46
0	6255	60.4	45.8
0	6256	60.4	45.6
0	6257	60.4	45.4
0	6258	60.4	45.2
0	6259	60.4	45
0	6260	60.4	44.8
0	6261	60.4	44.6
0	6262	60.4	44.4
0	6263	60.4	44.2
0	6264	60.4	44
0	6265	60.4	43.8
0	6266	60.4	43.6
0	6267	60.4	43.4
0	6268	60.4	43.2
0	6269	60.4	43
0	6270	60.4	42.8
0	6271	60.4	42.6
0	6272	60.4	42.4
0	6273	60.4	42.2
0	6274	60.4	42
0	6275	60.4	41.8
0	6276	60.4	41.6
0	6277	60.4	41.4
0	6278	60.4	41.2
0	6279	60.4	41
0	6280	60.4	40.8
0	6281	60.4	40.6
0	6282	60.4	40.4
0	6283	60.4	40.2
0	6284	60.4	40
0	6285	60.4	39.8
0	6286	60.4	39.6
0	6287	60.4	39.4
0	6288	60.4	39.2
0	6289	60.4	39
0	6290	60.4	38.8
0	6291	60.4	38.6
0	6292	60.4	38.4
0	6293	60.4	38.2
0	6294	60.4	38
0	6295	60.4	37.8
0	6296	60.4	37.6
0	6297	60.4	37.4
0	6298	60.4	37.2
0	6299	60.4	37
0	6300	60.4	36.8
0	6301	60.4	36.6
0	6302	60.4	36.4
0	6303	60.4	36.2
0	6304	60.4	36
0	6305	60.4	35.8
0	6306	60.4	35.6
0	6307	60.4	35.4
0	6308	60.4	35.2
0	6309	60.4	35
0	6310	60.4	34.8
0	6311	60.4	34.6
0	6312	60.4	34.4
0	6313	60.4	34.2
0	6314	60.4	34
0	6315	60.4	33.8
0	6316	60.4	33.6
0	6317	60.4	33.4
0	6318	60.4	33.2
0	6319	60.4	33
0	6320	60.4	32.8
0	6321	60.4	32.6
0	6322	60.4	32.4
0	6323	60.4	32.2
0	6324	60.4	32
0	6325	60.4	31.8
0	6326	60.4	31.6
0	6327	60.4	31.4
0	6328	60.4	31.2
0	6329	60.4	31
0	6330	60.4	30.8
0	6331	60.4	30.6
0	6332	60.4	30.4
0	6333	60.4	30.2
0	6334	60.4	30
0	6335	60.4	29.8
0	6336	60.4	29.6
0	6337	60.4	29.4
0	6338	60.4	29.2
0	6339	60.4	29
0	6340	60.4	28.8
0	6341	60.4	28.6
0	6342	60.4	28.4
0	6343	60.4	28.2
0	6344	60.4	28
0	6345	60.4	27.8
0	6346	60.4	27.6
0	6347	60.4	27.4
0	6348	60.4	27.2
0	6349	60.4	27
0	6350	60.4	26.8
0	6351	60.4	26.6
0	6352	60.4	26.4
0	6353	60.4	26.2
0	6354	60.4	26
0	6355	60.4	25.8
0	6356	60.4	25.6
0	6357	60.4	25.4
0	6358	60.4	25.2
0	6359	60.4	25
0	6360	60.4	24.8
0	6361	60.4	24.6
0	6362	60.4	24.4
0	6363	60.4	24.2
0	6364	60.4	24
0	6365	60.4	23.8
0	6366	60.4	23.6
0	6367	60.4	23.4
0	6368	60.4	23.2
0	6369	60.4	23
0	6370	60.4	22.8
0	6371	60.4	22.6
0	6372	60.4	22.4
0	6373	60.4	22.2
0	6374	60.4	22
0	6375	60.4	21.8
0	6376	60.4	21.6
0	6377	60.4	21.4
0	6378	60.4	21.2
0	6379	60.4	21
0	6380	60.4	20.8
0	6381	60.4	20.6
0	6382	60.4	20.4
0	6383	60.4	20.2
0	6384	60.4	20
0	6385	60.4	19.8
0	6386	60.4	19.6
0	6387	60.4	19.4
0	6388	60.4	19.2
0	6389	60.4	19
0	6390	60.4	18.8
0	6391	60.4	18.6
0	6392	60.4	18.4
0	6393	60.4	18.2
0	6394	60.4	18
0	6395	60.4	17.8
0	6396	60.4	17.6
0	6397	60.4	17.4
0	6398	60.4	17.2
0	6399	60.4	17
0	6400	60.4	16.8
0	6401	60.4	16.6
0	6402	60.4	16.4
0	6403	60.4	16.2
0	6404	60.4	16
0	6405	60.4	15.8
0	6406	60.4	15.6
0	6407	60.4	15.4
0	6408	60.4	15.2
0	6409	60.4	15
0	6410	60.4	14.8
0	6411	60.4	14.6
0	6412	60.4	14.4
0	6413	60.4	14.2
0	6414	60.4	14
0	6415	60.4	13.8
0	6416	60.4	13.6
0	6417	60.4	13.4
0	6418	60.4	13.2
0	6419	60.4	13
0	6420	60.4	12.8
0	6421	60.4	12.6
0	6422	60.4	12.4
0	6423	60.4	12.2
0	6424	60.4	12
0	6425	60.4	11.8
0	6426	60.4	11.6
0	6427	60.4	11.4
0	6428	60.4	11.2
0	6429	60.4	11
0	6430	60.4	10.8
0	6431	60.4	10.6
0	6432	60.4	10.4
0	6433	60.4	10.2
0	6434	60.4	10
0	6435	60.4	9.8
0	6436	60.4	9.6
0	6437	60.4	9.4
0	6438	60.4	9.2
0	6439	60.4	9
0	6440	60.4	8.8
0	6441	60.4	8.6
0	6442	60.4	8.4
0	6443	60.4	8.2
0	6444	60.4	8
0	6445	60.4	7.8
0	6446	60.4	7.6
0	6447	60.4	7.4
0	6448	60.4	7.2
0	6449	60.4	7
0	6450	60.4	6.8
0	6451	60.4	6.6
0	14739	92.1	38.1
0	14740	92.1	37.9
0	14741	92.1	37.7
0	14742	92.1	37.5
0	14743	92.1	37.3
0	14744	92.1	37.1
0	14745	92.1	36.9
0	14746	92.1	36.7
0	14747	92.1	36.5
0	14748	92.1	36.3
0	14749	92.1	36.1
0	14750	92.1	35.9
0	14751	92.1	35.7
0	14752	92.1	35.5
0	14753	92.1	35.3
0	14754	92.1	35.1
0	14755	92.1	34.9
0	14756	92.1	34.7
0	14757	92.1	34.5
0	14758	92.1	34.3
0	14759	92.1	34.1
0	14760	92.1	33.9
0	14761	92.1	33.7
0	14762	92.1	33.5
0	14763	92.1	33.3
0	14764	92.1	33.1
0	14765	92.1	32.9
0	14766	92.1	32.7
0	14767	92.1	32.5
0	14768	92.1	32.3
0	14769	92.1	32.1
0	14770	92.1	31.9
0	14771	92.1	31.7
0	14772	92.1	31.5
0	14773	92.1	31.3
0	14774	92.1	31.1
0	14775	92.1	30.9
0	14776	92.1	30.7
0	14777	92.1	30.5
0	14778	92.1	30.3
0	14779	92.1	30.1
0	14780	92.1	29.9
0	14781	92.1	29.7
0	14782	92.1	29.5
0	14783	92.1	29.3
0	14784	92.1	29.1
0	14785	92.1	28.9
0	14786	92.1	28.7
0	14787	92.1	28.5
0	14788	92.1	28.3
0	14789	92.1	28.1
0	14790	92.1	27.9
0	14791	92.1	27.7
0	14792	92.1	27.5
0	14793	92.1	27.3
0	14794	92.1	27.1
0	14795	92.1	26.9
0	14796	92.1	26.7
0	14797	92.1	26.5
0	14798	92.1	26.3
0	14799	92.1	26.1
0	14800	92.1	25.9
0	14801	92.1	25.7
0	14802	92.1	25.5
0	14803	92.1	25.3
0	14804	92.1	25.1
0	14805	92.1	24.9
0	14806	92.1	24.7
0	14807	92.1	24.5
0	14808	92.1	24.3
0	14809	92.1	24.1
0	14810	92.1	23.9
0	14811	92.1	23.7
0	14812	92.1	23.5
0	14813	92.1	23.3
0	14814	92.1	23.1
0	14815	92.1	22.9
0	14816	92.1	22.7
0	14817	92.1	22.5
0	14818	92.1	22.3
0	14819	92.1	22.1
0	14820	92.1	21.9
0	14821	92.1	21.7
0	14822	92.1	21.5
0	14823	92.1	21.3
0	14824	92.1	21.1
0	14825	92.1	20.9
0	14826	92.1	20.7
0	14827	92.1	20.5
0	14828	92.1	20.3
0	14829	92.1	20.1
0	14830	92.1	19.9
0	14831	92.1	19.7
0	14832	92.1	19.5
0	14833	92.1	19.3
0	14834	92.1	19.1
0	14835	92.1	18.9
0	14836	92.1	18.7
0	14837	92.1	18.5
0	14838	92.1	18.3
0	14839	92.1	18.1
0	14840	92.1	17.9
0	14841	92.1	17.7
0	14842	92.1	17.5
0	14843	92.1	17.3
0	14844	92.1	17.1
0	14845	92.1	16.9
0	14846	92.1	16.7
0	14847	92.1	16.5
0	14848	92.1	16.3
0	14849	92.1	16.1
0	14850	92.1	15.9
0	14851	92.1	15.7
0	14852	92.1	15.5
0	14853	92.1	15.3
0	14854	92.1	15.1
0	14855	92.1	14.9
0	14856	92.1	14.7
0	14857	92.1	14.5
0	14858	92.1	14.3
0	14859	92.1	14.1
0	14860	92.1	13.9
0	14861	92.1	13.7
0	14862	92.1	13.5
0	14863	92.1	13.3
0	14864	92.1	13.1
0	14865	92.1	12.9
0	14866	92.1	12.7
0	14867	92.1	12.5
0	14868	92.1	12.3
0	14869	92.1	12.1
0	14870	92.1	11.9
0	14871	92.1	11.7
0	14872	92.1	11.5
0	14873	92.1	11.3
0	14874	92.1	11.1
0	14875	92.1	10.9
0	14876	92.1	10.7
0	14877	92.1	10.5
0	14878	92.1	10.3
0	14879	92.1	10.1
0	14880	92.1	9.9
0	14881	92.1	9.7
0	14882	92.1	9.5
0	14883	92.1	9.3
0	14884	92.1	9.1
0	14885	92.1	8.9
0	14886	92.1	8.7
0	14887	92.1	8.5
0	14888	92.1	8.3
0	17599	100.1	16.1
0	17600	100.1	15.9
0	17601	100.1	15.7
0	17602	100.1	15.5
0	17603	100.1	15.3
0	17604	100.1	15.1
0	17605	100.1	14.9
0	17606	100.1	14.7
0	17607	100.1	14.5
0	17608	100.1	14.3
0	17609	100.1	14.1
0	17610	100.1	13.9
0	17611	100.1	13.7
0	17612	100.1	13.5
0	17613	100.1	13.3
0	17614	100.1	13.1
0	17615	100.1	12.9
0	17616	100.1	12.7
0	17617	100.1	12.5
0	17618	100.1	12.3
0	17619	100.1	12.1
0	17620	100.1	11.9
0	17621	100.1	11.7
0	17622	100.1	11.5
0	17623	100.1	11.3
0	17624	100.1	11.1
0	17625	100.1	10.9
0	17626	100.1	10.7
0	17627	100.1	10.5
0	17628	100.1	10.3
0	17629	100.1	10.1
0	17630	100.1	9.9
0	17631	100.1	9.7
0	17632	100.1	9.5
0	17633	100.1	9.3
0	17634	100.1	9.1
0	17635	100.1	8.9
0	17636	100.1	8.7
0	17637	100.1	8.5
0	17638	100.1	8.3
0	17639	100.1	8.1
0	17640	100.1	7.9
0	17641	100.1	7.7
0	17642	100.1	7.5
0	17643	100.1	7.3
0	17644	100.1	7.1
0	17645	100.1	6.9
0	17646	100.1	6.7
0	17647	100.1	6.5
0	17648	100.1	6.3
0	17649	100.1	6.1
0	17650	100.1	5.9
0	17651	100.1	5.7
0	17652	100.1	5.5
0	17653	100.1	5.3
0	17654	100.1	5.1
0	17655	100.1	4.9
0	17656	100.1	4.7
0	17657	100.1	4.5
0	17658	100.1	4.3
0	17659	100.1	4.1
0	17660	100.1	3.9
0	17661	100.1	3.7
0	17662	100.1	3.5
0	17663	100.1	3.3
0	17664	100.1	3.1
0	17665	100.1	2.9
0	17666	100.1	2.7
0	17667	100.1	2.5
0	17668	100.1	2.3
0	17669	100.1	2.1
0	17670	100.1	1.9
0	17671	100.1	1.7
0	17672	100.1	1.5
0	17694	100.3	1.5
0	17716	100.5	1.5
0	17738	100.7	1.5
0	17760	100.9	1.5
0	18536	101.1	1.5
0	18912	101.3	1.5
0	18925	101.4	1.4
0	18947	101.6	1.4
0	18969	101.8	1.4
0	18994	102	1.4
0	19263	102.2	1.4
0	19291	102.4	1.4
0	19319	102.6	1.4
0	19347	102.8	1.4
0	19377	103	1.4
0	19550	103.2	1.4
0	19557	103.3	1.3
0	19568	103.5	1.3
0	19579	103.7	1.3
0	19590	103.9	1.3
0	21837	109.4	6.6
0	24278	118.4	15.4
0	24279	118.4	15.2
0	24280	118.4	15
0	24281	118.4	14.8
0	24282	118.4	14.6
0	24283	118.4	14.4
0	24284	118.4	14.2
0	24285	118.4	14
0	24286	118.4	13.8
0	24287	118.4	13.6
0	24288	118.4	13.4
0	24289	118.4	13.2
0	24290	118.4	13
0	24291	118.4	12.8
0	24292	118.4	12.6
0	24293	118.4	12.4
0	24294	118.4	12.2
0	24295	118.4	12
0	24296	118.4	11.8
0	24297	118.4	11.6
0	24298	118.4	11.4
0	24299	118.4	11.2
0	24300	118.4	11
0	24301	118.4	10.8
0	24302	118.4	10.6
0	24303	118.4	10.4
0	24304	118.4	10.2
0	24305	118.4	10
0	24306	118.4	9.8
0	24307	118.4	9.6
0	24308	118.4	9.4
0	24309	118.4	9.2
0	24310	118.4	9
0	24311	118.4	8.8
0	24312	118.4	8.6
0	24313	118.4	8.4
0	24314	118.4	8.2
0	24315	118.4	8
0	24316	118.4	7.8
0	24317	118.4	7.6
0	24318	118.4	7.4
0	24319	118.4	7.2
0	24320	118.4	7
0	24321	118.4	6.8
0	24322	118.4	6.6
0	24323	118.4	6.4
0	24324	118.4	6.2
0	24325	118.4	6
0	24326	118.4	5.8
0	24327	118.4	5.6
0	24328	118.4	5.4
0	24329	118.4	5.2
0	24330	118.4	5
0	24331	118.4	4.8
0	24332	118.4	4.6
0	24333	118.4	4.4
0	24334	118.4	4.2
0	24335	118.4	4
0	24336	118.4	3.8
0	24337	118.4	3.6
0	24338	118.4	3.4
0	24339	118.4	3.2
0	24340	118.4	3
0	24341	118.4	2.8
0	24342	118.4	2.6
0	24343	118.4	2.4
0	24344	118.4	2.2
0	24345	118.4	2
0	24346	118.4	1.8
0	24347	118.4	1.6
0	24348	118.4	1.4
0	24376	118.6	1.4
0	24404	118.8	1.4
0	24433	119	1.4
0	28628	136.6	17.6
0	28629	136.6	17.4
0	28630	136.6	17.2
0	28631	136.6	17
0	28632	136.6	16.8
0	28633	136.6	16.6
0	28634	136.6	16.4
0	28635	136.6	16.2
0	28636	136.6	16
0	28637	136.6	15.8
0	28638	136.6	15.6
0	28639	136.6	15.4
0	28640	136.6	15.2
0	28641	136.6	15
0	28642	136.6	14.8
0	28643	136.6	14.6
0	28644	136.6	14.4
0	28645	136.6	14.2
0	28646	136.6	14
0	28647	136.6	13.8
0	28648	136.6	13.6
0	28649	136.6	13.4
0	28650	136.6	13.2
0	28651	136.6	13
0	28652	136.6	12.8
0	28653	136.6	12.6
0	28654	136.6	12.4
0	28655	136.6	12.2
0	28656	136.6	12
0	28657	136.6	11.8
0	28658	136.6	11.6
0	28659	136.6	11.4
0	28660	136.6	11.2
0	28661	136.6	11
0	28662	136.6	10.8
0	28663	136.6	10.6
0	28664	136.6	10.4
0	28665	136.6	10.2
0	28666	136.6	10
0	28667	136.6	9.8
0	28668	136.6	9.6
0	28669	136.6	9.4
0	28670	136.6	9.2
0	28671	136.6	9
0	28672	136.6	8.8
0	28673	136.6	8.6
0	28674	136.6	18.8
0	28675	136.6	18.6
0	28676	136.6	18.4
0	28677	136.6	18.2
0	28678	136.6	18
0	28679	136.6	17.8
0	28680	136.6	8.4
0	28681	136.6	8.2
0	28682	136.6	8
0	28683	136.6	7.8
0	28684	136.6	7.6
0	28685	136.6	7.4
0	28686	136.6	7.2
0	28687	136.6	7
0	28688	136.6	6.8
0	28689	136.6	6.6
0	28690	136.6	6.4
0	28691	136.6	6.2
0	28692	136.6	6
0	28693	136.6	5.8
0	28694	136.6	5.6
0	28695	136.6	5.4
0	28696	136.6	5.2
0	28697	136.6	5
0	28698	136.6	4.8
0	28699	136.6	4.6
0	28700	136.6	4.4
0	28701	136.6	4.2
0	28702	136.6	4
0	28703	136.6	3.8
0	28704	136.6	3.6
0	28705	136.6	3.4
0	28706	136.6	3.2
0	28707	136.6	3
0	28708	136.6	2.8
0	28709	136.6	2.6
0	28710	136.6	2.4
0	28711	136.6	2.2
0	28712	136.6	2
0	28713	136.6	1.8
0	28714	136.6	1.6
0	28746	136.8	1.6
0	28779	137	1.6
0	28843	137.2	1.6
0	28881	137.4	1.6
0	28919	137.6	1.6
0	28957	137.8	1.6
0	28993	138	1.6
0	30840	138.2	1.6
0	30892	138.4	1.6
0	30944	138.6	1.6
0	30996	138.8	1.6
0	31050	139	1.6
0	31100	139.2	1.6
0	32783	154.1	16.3
0	32784	154.1	16.1
0	32785	154.1	15.9
0	32786	154.1	15.7
0	32787	154.1	15.5
0	32788	154.1	15.3
0	32789	154.1	15.1
0	32790	154.1	14.9
0	32791	154.1	14.7
0	32792	154.1	14.5
0	32793	154.1	14.3
0	32794	154.1	14.1
0	32795	154.1	13.9
0	32796	154.1	13.7
0	32797	154.1	13.5
0	32798	154.1	13.3
0	32799	154.1	13.1
0	32800	154.1	12.9
0	32801	154.1	12.7
0	32802	154.1	12.5
0	32803	154.1	12.3
0	32804	154.1	12.1
0	32805	154.1	11.9
0	32806	154.1	11.7
0	32807	154.1	11.5
0	32808	154.1	11.3
0	41429	212.1	69.1
0	41430	212.1	68.9
0	41431	212.1	68.7
0	41432	212.1	68.5
0	41433	212.1	68.3
0	41434	212.1	68.1
0	41435	212.1	67.9
0	41436	212.1	67.7
0	41437	212.1	67.5
0	41438	212.1	67.3
0	41439	212.1	67.1
0	41440	212.1	66.9
0	41441	212.1	66.7
0	41442	212.1	66.5
0	41443	212.1	66.3
0	41444	212.1	66.1
0	41445	212.1	65.9
0	41446	212.1	65.7
0	41447	212.1	65.5
0	41448	212.1	65.3
0	41449	212.1	65.1
0	41450	212.1	64.9
0	41451	212.1	64.7
0	41452	212.1	64.5
0	41453	212.1	64.3
0	41454	212.1	64.1
0	41455	212.1	63.9
0	41456	212.1	63.7
0	41457	212.1	63.5
0	41458	212.1	63.3
0	41459	212.1	63.1
0	41460	212.1	62.9
0	41461	212.1	62.7
0	41462	212.1	62.5
0	41463	212.1	62.3
0	41464	212.1	62.1
0	41465	212.1	61.9
0	41466	212.1	61.7
0	41467	212.1	61.5
0	41468	212.1	61.3
0	41469	212.1	61.1
0	41470	212.1	60.9
0	41471	212.1	60.7
0	41472	212.1	60.5
0	41473	212.1	60.3
0	41474	212.1	60.1
0	41475	212.1	59.9
0	41476	212.1	59.7
0	41477	212.1	59.5
0	41478	212.1	59.3
0	41479	212.1	59.1
0	41480	212.1	58.9
0	41481	212.1	58.7
0	41482	212.1	58.5
0	41483	212.1	58.3
0	41484	212.1	58.1
0	41485	212.1	57.9
0	41486	212.1	57.7
0	41487	212.1	57.5
0	41488	212.1	57.3
0	41489	212.1	57.1
0	41490	212.1	56.9
0	41491	212.1	56.7
0	41492	212.1	56.5
0	41493	212.1	56.3
0	41494	212.1	56.1
0	41495	212.1	55.9
0	41496	212.1	55.7
0	41497	212.1	55.5
0	41498	212.1	55.3
0	41499	212.1	55.1
0	41500	212.1	54.9
0	41501	212.1	54.7
0	41502	212.1	54.5
0	41503	212.1	54.3
0	41504	212.1	54.1
0	41505	212.1	53.9
0	41506	212.1	53.7
0	41507	212.1	53.5
0	41508	212.1	53.3
0	41509	212.1	53.1
0	41510	212.1	52.9
0	41511	212.1	52.7
0	41512	212.1	52.5
0	41513	212.1	52.3
0	41514	212.1	52.1
0	41515	212.1	51.9
0	41516	212.1	51.7
0	41517	212.1	51.5
0	41518	212.1	51.3
0	41519	212.1	51.1
0	41520	212.1	50.9
0	41521	212.1	50.7
0	41522	212.1	50.5
0	41523	212.1	50.3
0	41524	212.1	50.1
0	41525	212.1	49.9
0	41526	212.1	49.7
0	41527	212.1	49.5
0	41528	212.1	49.3
0	41529	212.1	49.1
0	41530	212.1	48.9
0	41531	212.1	48.7
0	41532	212.1	48.5
0	41533	212.1	48.3
0	41534	212.1	48.1
0	41535	212.1	47.9
0	41536	212.1	47.7
0	41537	212.1	47.5
0	41538	212.1	47.3
0	41539	212.1	47.1
0	41540	212.1	46.9
0	41541	212.1	46.7
0	41542	212.1	46.5
0	41543	212.1	46.3
0	41544	212.1	46.1
0	41545	212.1	45.9
0	41546	212.1	45.7
0	41547	212.1	45.5
0	41548	212.1	45.3
0	41549	212.1	45.1
0	41550	212.1	44.9
0	41551	212.1	44.7
0	41552	212.1	44.5
0	41553	212.1	44.3
0	41554	212.1	44.1
0	41555	212.1	43.9
0	41556	212.1	43.7
0	41557	212.1	43.5
0	41558	212.1	43.3
0	41559	212.1	43.1
0	41560	212.1	42.9
0	41561	212.1	42.7
0	41562	212.1	42.5
0	41563	212.1	42.3
0	41564	212.1	42.1
0	41565	212.1	41.9
0	41566	212.1	41.7
0	41567	212.1	41.5
0	41568	212.1	41.3
0	41569	212.1	41.1
0	41570	212.1	40.9
0	41571	212.1	40.7
0	41572	212.1	40.5
0	41573	212.1	40.3
0	41574	212.1	40.1
0	41575	212.1	39.9
0	41576	212.1	39.7
0	41577	212.1	39.5
0	41578	212.1	39.3
0	41579	212.1	39.1
0	41580	212.1	38.9
0	41581	212.1	38.7
0	41582	212.1	38.5
0	41583	212.1	38.3
0	41584	212.1	38.1
0	41585	212.1	37.9
0	41586	212.1	37.7
0	41587	212.1	37.5
0	41588	212.1	37.3
0	41589	212.1	37.1
0	41590	212.1	36.9
0	41591	212.1	36.7
0	41592	212.1	36.5
0	41593	212.1	36.3
0	41594	212.1	36.1
0	41595	212.1	35.9
0	41596	212.1	35.7
0	41597	212.1	35.5
0	41598	212.1	35.3
0	41599	212.1	35.1
0	41600	212.1	34.9
0	41601	212.1	34.7
0	41602	212.1	34.5
0	41603	212.1	34.3
0	41604	212.1	34.1
0	41605	212.1	33.9
0	41606	212.1	33.7
0	41607	212.1	33.5
0	41608	212.1	33.3
0	56168	302.1	123.1
0	56169	302.1	122.9
0	56170	302.1	122.7
0	56171	302.1	122.5
0	56172	302.1	122.3
0	56173	302.1	122.1
0	56174	302.1	121.9
0	56175	302.1	121.7
0	56176	302.1	121.5
0	56177	302.1	121.3
0	56178	302.1	121.1
0	56179	302.1	120.9
0	56180	302.1	120.7
0	56181	302.1	120.5
0	56182	302.1	120.3
0	56183	302.1	120.1
0	56184	302.1	119.9
0	56185	302.1	119.7
0	56186	302.1	119.5
0	56187	302.1	119.3
0	56188	302.1	119.1
0	56189	302.1	118.9
0	56190	302.1	118.7
0	56191	302.1	118.5
0	56192	302.1	118.3
0	56193	302.1	118.1
0	56194	302.1	117.9
0	56195	302.1	117.7
0	56196	302.1	117.5
0	56197	302.1	117.3
0	56198	302.1	117.1
0	56199	302.1	116.9
0	56200	302.1	116.7
0	56201	302.1	116.5
0	56202	302.1	116.3
0	56203	302.1	116.1
0	56204	302.1	115.9
0	56205	302.1	115.7
0	56206	302.1	115.5
0	56207	302.1	115.3
0	56208	302.1	115.1
0	56209	302.1	114.9
0	56210	302.1	114.7
0	56211	302.1	114.5
0	56212	302.1	114.3
0	56213	302.1	114.1
0	56214	302.1	113.9
0	56215	302.1	113.7
0	56216	302.1	113.5
0	56217	302.1	113.3
0	56218	302.1	113.1
0	56219	302.1	112.9
0	56220	302.1	112.7
0	56221	302.1	112.5
0	56222	302.1	112.3
0	56223	302.1	112.1
0	56224	302.1	111.9
0	56225	302.1	111.7
0	56226	302.1	111.5
0	56227	302.1	111.3
0	56228	302.1	111.1
0	56229	302.1	110.9
0	56230	302.1	110.7
0	56231	302.1	110.5
0	56232	302.1	110.3
0	56233	302.1	110.1
0	56234	302.1	109.9
0	56235	302.1	109.7
0	56236	302.1	109.5
0	56237	302.1	109.3
0	56238	302.1	109.1
0	56239	302.1	108.9
0	56240	302.1	108.7
0	56241	302.1	108.5
0	56242	302.1	108.3
0	56243	302.1	108.1
0	56244	302.1	107.9
0	56245	302.1	107.7
0	56246	302.1	107.5
0	56247	302.1	107.3
0	56248	302.1	107.1
0	56249	302.1	106.9
0	56250	302.1	106.7
0	56251	302.1	106.5
0	56252	302.1	106.3
0	56253	302.1	106.1
0	56254	302.1	105.9
0	56255	302.1	105.7
0	56256	302.1	105.5
0	56257	302.1	105.3
0	56258	302.1	105.1
0	56259	302.1	104.9
0	56260	302.1	104.7
0	56261	302.1	104.5
0	56262	302.1	104.3
0	56263	302.1	104.1
0	56264	302.1	103.9
0	56265	302.1	103.7
0	56266	302.1	103.5
0	56267	302.1	103.3
0	56268	302.1	103.1
0	56269	302.1	102.9
0	56270	302.1	102.7
0	56271	302.1	102.5
0	56272	302.1	102.3
0	56273	302.1	102.1
0	56274	302.1	101.9
0	56275	302.1	101.7
0	56276	302.1	101.5
0	56277	302.1	101.3
0	56278	302.1	101.1
0	56279	302.1	100.9
0	56280	302.1	100.7
0	56281	302.1	100.5
0	56282	302.1	100.3
0	56283	302.1	100.1
0	56284	302.1	99.9
0	56285	302.1	99.7
0	56286	302.1	99.5
0	56287	302.1	99.3
0	56288	302.1	99.1
0	56289	302.1	98.9
0	56290	302.1	98.7
0	56291	302.1	98.5
0	56292	302.1	98.3
0	56293	302.1	98.1
0	56294	302.1	97.9
0	56295	302.1	97.7
0	56296	302.1	97.5
0	56297	302.1	97.3
0	56298	302.1	97.1
0	56299	302.1	96.9
0	56300	302.1	96.7
0	56301	302.1	96.5
0	56302	302.1	96.3
0	56303	302.1	96.1
0	56304	302.1	95.9
0	56305	302.1	95.7
0	56306	302.1	95.5
0	56307	302.1	95.3
0	56308	302.1	95.1
0	56309	302.1	94.9
0	56310	302.1	94.7
0	56311	302.1	94.5
0	56312	302.1	94.3
0	56313	302.1	94.1
0	56314	302.1	93.9
0	56315	302.1	93.7
0	56316	302.1	93.5
0	56317	302.1	93.3
0	56318	302.1	93.1
0	56319	302.1	92.9
0	56320	302.1	92.7
0	56321	302.1	92.5
0	56322	302.1	92.3
0	56323	302.1	92.1
0	56324	302.1	91.9
0	56325	302.1	91.7
0	56326	302.1	91.5
0	56327	302.1	91.3
0	56328	302.1	91.1
0	56329	302.1	90.9
0	56330	302.1	90.7
0	56331	302.1	90.5
0	56332	302.1	90.3
0	56333	302.1	90.1
0	56334	302.1	89.9
0	56335	302.1	89.7
0	56336	302.1	89.5
0	56337	302.1	89.3
0	56338	302.1	89.1
0	56339	302.1	88.9
0	56340	302.1	88.7
0	56341	302.1	88.5
0	56342	302.1	88.3
0	56343	302.1	88.1
0	56344	302.1	87.9
0	56345	302.1	87.7
0	56346	302.1	87.5
0	56347	302.1	87.3
0	56348	302.1	87.1
0	56349	302.1	86.9
0	56350	302.1	86.7
0	56351	302.1	86.5
0	56352	302.1	86.3
0	56353	302.1	86.1
0	56354	302.1	85.9
0	56355	302.1	85.7
0	56356	302.1	85.5
0	56357	302.1	85.3
0	56358	302.1	85.1
0	56359	302.1	84.9
0	56360	302.1	84.7
0	56361	302.1	84.5
0	56362	302.1	84.3
0	56363	302.1	84.1
0	56364	302.1	83.9
0	56365	302.1	83.7
0	56366	302.1	83.5
0	56367	302.1	83.3
0	56368	302.1	83.1
0	56369	302.1	82.9
0	56370	302.1	82.7
0	56371	302.1	82.5
0	56372	302.1	82.3
0	56373	302.1	82.1
0	56374	302.1	81.9
0	56375	302.1	81.7
0	56376	302.1	81.5
0	56377	302.1	81.3
0	56378	302.1	81.1
0	56379	302.1	80.9
0	56380	302.1	80.7
0	56381	302.1	80.5
0	56382	302.1	80.3
0	56383	302.1	80.1
0	56384	302.1	79.9
0	56385	302.1	79.7
0	56386	302.1	79.5
0	56387	302.1	79.3
0	56388	302.1	79.1
0	56389	302.1	78.9
0	56390	302.1	78.7
0	56391	302.1	78.5
0	56392	302.1	78.3
0	56393	302.1	78.1
0	56394	302.1	77.9
0	56395	302.1	77.7
0	56396	302.1	77.5
0	56397	302.1	77.3
0	56398	302.1	77.1
0	56399	302.1	76.9
0	56400	302.1	76.7
0	56401	302.1	76.5
0	56402	302.1	76.3
0	56403	302.1	76.1
0	56404	302.1	75.9
0	56405	302.1	75.7
0	56406	302.1	75.5
0	56407	302.1	75.3
0	56408	302.1	75.1
0	56409	302.1	74.9
0	56410	302.1	74.7
0	56411	302.1	74.5
0	56412	302.1	74.3
0	56413	302.1	74.1
0	56414	302.1	73.9
0	56415	302.1	73.7
0	56416	302.1	73.5
0	56417	302.1	73.3
0	56418	302.1	73.1
0	56419	302.1	72.9
0	56420	302.1	72.7
0	56421	302.1	72.5
0	56422	302.1	72.3
0	56423	302.1	72.1
0	56424	302.1	71.9
0	56425	302.1	71.7
0	56426	302.1	71.5
0	56427	302.1	71.3
0	56428	302.1	71.1
0	56429	302.1	70.9
0	56430	302.1	70.7
0	56431	302.1	70.5
0	56432	302.1	70.3
0	56433	302.1	70.1
0	56434	302.1	69.9
0	56435	302.1	69.7
0	56436	302.1	69.5
0	56437	302.1	69.3
0	56438	302.1	69.1
0	56439	302.1	68.9
0	56440	302.1	68.7
0	56441	302.1	68.5
0	56442	302.1	68.3
0	56443	302.1	68.1
0	56444	302.1	67.9
0	56445	302.1	67.7
0	56446	302.1	67.5
0	56447	302.1	67.3
0	56448	302.1	67.1
0	56449	302.1	66.9
0	56450	302.1	66.7
0	56451	302.1	66.5
0	56452	302.1	66.3
0	56453	302.1	66.1
0	56454	302.1	65.9
0	56455	302.1	65.7
0	56456	302.1	65.5
0	56457	302.1	65.3
0	56458	302.1	65.1
0	56459	302.1	64.9
0	56460	302.1	64.7
0	56461	302.1	64.5
0	56462	302.1	64.3
0	56463	302.1	64.1
0	56464	302.1	63.9
0	56465	302.1	63.7
0	56466	302.1	63.5
0	56467	302.1	63.3
0	56468	302.1	63.1
0	56469	302.1	62.9
0	56470	302.1	62.7
0	56471	302.1	62.5
0	56472	302.1	62.3
0	56473	302.1	62.1
0	56474	302.1	61.9
0	56475	302.1	61.7
0	56476	302.1	61.5
0	56477	302.1	61.3
0	56478	302.1	61.1
0	56479	302.1	60.9
0	56480	302.1	60.7
0	56481	302.1	60.5
0	56482	302.1	60.3
0	56483	302.1	60.1
0	56484	302.1	59.9
0	56485	302.1	59.7
0	56486	302.1	59.5
0	56487	302.1	59.3
0	56488	302.1	59.1
0	56489	302.1	58.9
0	56490	302.1	58.7
0	56491	302.1	58.5
0	56492	302.1	58.3
0	56493	302.1	58.1
0	56494	302.1	57.9
0	56495	302.1	57.7
0	56496	302.1	57.5
0	56497	302.1	57.3
0	56498	302.1	57.1
0	56499	302.1	56.9
0	56500	302.1	56.7
0	56501	302.1	56.5
0	56502	302.1	56.3
0	56503	302.1	56.1
0	56504	302.1	55.9
0	56505	302.1	55.7
0	56506	302.1	55.5
0	56507	302.1	55.3
0	56508	302.1	55.1
0	56509	302.1	54.9
0	56510	302.1	54.7
0	56511	302.1	54.5
0	56512	302.1	54.3
0	56513	302.1	54.1
0	56514	302.1	53.9
0	56515	302.1	53.7
0	56516	302.1	53.5
0	56517	302.1	53.3
0	56518	302.1	53.1
0	56519	302.1	52.9
0	56520	302.1	52.7
0	56521	302.1	52.5
0	56522	302.1	52.3
0	56523	302.1	52.1
0	56524	302.1	51.9
0	56525	302.1	51.7
0	56526	302.1	51.5
0	56527	302.1	51.3
0	56528	302.1	51.1
0	56529	302.1	50.9
0	56530	302.1	50.7
0	56531	302.1	50.5
0	56532	302.1	50.3
0	56533	302.1	50.1
0	56534	302.1	49.9
0	56535	302.1	49.7
0	56536	302.1	49.5
0	56537	302.1	49.3
0	56538	302.1	49.1
0	56539	302.1	48.9
0	56540	302.1	48.7
0	56541	302.1	48.5
0	56542	302.1	48.3
0	56543	302.1	48.1
0	56544	302.1	47.9
0	56545	302.1	47.7
0	56546	302.1	47.5
0	56547	302.1	47.3
0	56548	302.1	47.1
0	56549	302.1	46.9
0	56550	302.1	46.7
0	56551	302.1	46.5
0	56552	302.1	46.3
0	56553	302.1	46.1
0	56554	302.1	45.9
0	56555	302.1	45.7
0	56556	302.1	45.5
0	56557	302.1	45.3
0	56558	302.1	45.1
0	56559	302.1	44.9
0	56560	302.1	44.7
0	56561	302.1	44.5
0	56562	302.1	44.3
0	56563	302.1	44.1
0	56564	302.1	43.9
0	56565	302.1	43.7
0	56566	302.1	43.5
0	56567	302.1	43.3
0	56568	302.1	43.1
0	56569	302.1	42.9
0	56570	302.1	42.7
0	56571	302.1	42.5
0	56572	302.1	42.3
0	56573	302.1	42.1
0	56574	302.1	41.9
0	56575	302.1	41.7
0	56576	302.1	41.5
0	56577	302.1	41.3
0	56578	302.1	41.1
0	56579	302.1	40.9
0	56580	302.1	40.7
0	56581	302.1	40.5
0	56582	302.1	40.3
0	56583	302.1	40.1
0	56584	302.1	39.9
0	56585	302.1	39.7
0	56586	302.1	39.5
0	56587	302.1	39.3
0	56588	302.1	39.1
0	56589	302.1	38.9
0	56590	302.1	38.7
0	56591	302.1	38.5
0	56592	302.1	38.3
0	56593	302.1	38.1
0	56594	302.1	37.9
0	56595	302.1	37.7
0	56596	302.1	37.5
0	56597	302.1	37.3
0	56598	302.1	37.1
0	56599	302.1	36.9
0	56600	302.1	36.7
0	56601	302.1	36.5
0	56602	302.1	36.3
0	56603	302.1	36.1
0	56604	302.1	35.9
0	56605	302.1	35.7
0	56606	302.1	35.5
0	56607	302.1	35.3
0	56608	302.1	35.1
0	56609	302.1	34.9
0	56610	302.1	34.7
0	56611	302.1	34.5
0	56612	302.1	34.3
0	56613	302.1	34.1
0	56614	302.1	33.9
0	56615	302.1	33.7
0	56616	302.1	33.5
0	56617	302.1	33.3
0	56618	302.1	33.1
0	56619	302.1	32.9
0	56620	302.1	32.7
0	56621	302.1	32.5
0	56622	302.1	32.3
0	56623	302.1	32.1
0	56624	302.1	31.9
0	56625	302.1	31.7
0	56626	302.1	31.5
0	56627	302.1	31.3
0	56628	302.1	31.1
0	56629	302.1	30.9
0	56630	302.1	30.7
0	56631	302.1	30.5
0	56632	302.1	30.3
0	56633	302.1	30.1
0	56634	302.1	29.9
0	56635	302.1	29.7
0	56636	302.1	29.5
0	56637	302.1	29.3
0	56638	302.1	29.1
0	56639	302.1	28.9
0	56640	302.1	28.7
0	56641	302.1	28.5
0	56642	302.1	28.3
0	56643	302.1	28.1
0	56644	302.1	27.9
0	56645	302.1	27.7
0	56646	302.1	27.5
0	56647	302.1	27.3
0	56648	302.1	27.1
0	56649	302.1	26.9
0	56650	302.1	26.7
0	56651	302.1	26.5
0	56652	302.1	26.3
0	56653	302.1	26.1
0	56654	302.1	25.9
0	56655	302.1	25.7
0	56656	302.1	25.5
0	56657	302.1	25.3
0	56658	302.1	25.1
0	56659	302.1	24.9
0	56660	302.1	24.7
0	56661	302.1	24.5
0	56662	302.1	24.3
0	56663	302.1	24.1
0	56664	302.1	23.9
0	56665	302.1	23.7
0	56666	302.1	23.5
0	56667	302.1	23.3
0	56668	302.1	23.1
0	56669	302.1	22.9
0	56670	302.1	22.7
0	56671	302.1	22.5
0	56672	302.1	22.3
0	56673	302.1	22.1
0	56674	302.1	21.9
0	56675	302.1	21.7
0	56676	302.1	21.5
0	56677	302.1	21.3
0	56678	302.1	21.1
0	56679	302.1	20.9
0	56680	302.1	20.7
0	56681	302.1	20.5
0	56682	302.1	20.3
0	56683	302.1	20.1
0	56684	302.1	19.9
0	56685	302.1	19.7
0	56686	302.1	19.5
0	56687	302.1	19.3
0	56688	302.1	19.1
0	56689	302.1	18.9
0	56690	302.1	18.7
0	56691	302.1	18.5
0	56692	302.1	18.3
0	56693	302.1	18.1
0	56694	302.1	17.9
0	56695	302.1	17.7
0	56696	302.1	17.5
0	56697	302.1	17.3
0	56698	302.1	17.1
0	56699	302.1	16.9
0	56700	302.1	16.7
0	56701	302.1	16.5
0	56702	302.1	16.3
0	56703	302.1	16.1
0	56704	302.1	15.9
0	56705	302.1	15.7
0	56706	302.1	15.5
0	56707	302.1	15.3
0	56708	302.1	15.1
0	56709	302.1	14.9
0	56710	302.1	14.7
0	56711	302.1	14.5
0	56712	302.1	14.3
0	56713	302.1	14.1
0	56714	302.1	13.9
0	56715	302.1	13.7
0	56716	302.1	13.5
0	56717	302.1	13.3
0	56718	302.1	13.1
0	56719	302.1	12.9
0	56720	302.1	12.7
0	56721	302.1	12.5
0	56722	302.1	12.3
0	56723	302.1	12.1
0	56724	302.1	11.9
0	56725	302.1	11.7
0	56726	302.1	11.5
0	56727	302.1	11.3
0	56728	302.1	11.1
0	56729	302.1	10.9
0	56730	302.1	10.7
0	56731	302.1	10.5
0	56732	302.1	10.3
0	56733	302.1	10.1
0	56734	302.1	9.9
0	56735	302.1	9.7
0	56736	302.1	9.5
0	56737	302.1	9.3
0	56738	302.1	9.1
0	56739	302.1	8.9
0	56740	302.1	8.7
0	56741	302.1	8.5
0	56742	302.1	8.3
0	56743	302.1	8.1
0	56744	302.1	7.9
0	56745	302.1	7.7
0	56746	302.1	7.5
0	56747	302.1	7.3
0	56748	302.1	7.1
0	56749	302.1	6.9
0	56750	302.1	6.7
0	56751	302.1	6.5
0	56752	302.1	6.3
0	56753	302.1	6.1
0	56754	302.1	5.9
0	56755	302.1	5.7
0	56756	302.1	5.5
0	66393	305.5	8.7
0	66394	305.5	8.5
0	66395	305.5	8.3
0	66396	305.5	8.1
0	66397	305.5	7.9
0	66398	305.5	7.7
0	72438	321.2	23.2
0	72439	321.2	23
0	72440	321.2	22.8
0	72441	321.2	22.6
0	72442	321.2	22.4
0	72443	321.2	22.2
0	72444	321.2	22
0	72445	321.2	21.8
0	72446	321.2	21.6
0	72447	321.2	21.4
0	72448	321.2	21.2
0	72449	321.2	21
0	72450	321.2	20.8
0	72451	321.2	20.6
0	72452	321.2	20.4
0	72453	321.2	20.2
0	72454	321.2	20
0	72455	321.2	19.8
0	72456	321.2	19.6
0	72457	321.2	19.4
0	72458	321.2	19.2
0	72459	321.2	19
0	72460	321.2	18.8
0	72461	321.2	18.6
0	72462	321.2	18.4
0	72463	321.2	18.2
0	72464	321.2	18
0	72465	321.2	17.8
0	72466	321.2	17.6
0	72467	321.2	17.4
0	72468	321.2	17.2
0	72469	321.2	17
0	72470	321.2	16.8
0	72471	321.2	16.6
0	72472	321.2	16.4
0	72473	321.2	16.2
0	72474	321.2	16
0	72475	321.2	15.8
0	72476	321.2	15.6
0	72477	321.2	15.4
0	72478	321.2	15.2
0	72479	321.2	15
0	72480	321.2	14.8
0	72481	321.2	14.6
0	72482	321.2	14.4
0	72483	321.2	14.2
0	72484	321.2	14
0	72485	321.2	13.8
0	72486	321.2	13.6
0	72487	321.2	13.4
0	72488	321.2	13.2
0	72489	321.2	13
0	72490	321.2	12.8
0	72491	321.2	12.6
0	72492	321.2	12.4
0	72493	321.2	12.2
0	72494	321.2	12
0	72495	321.2	11.8
0	72496	321.2	11.6
0	72497	321.2	11.4
0	72498	321.2	11.2
0	72499	321.2	11
0	72500	321.2	10.8
0	72501	321.2	10.6
0	72502	321.2	10.4
0	72503	321.2	10.2
0	72504	321.2	10
0	72505	321.2	9.8
0	72506	321.2	9.6
0	72507	321.2	9.4
0	72508	321.2	9.2
0	72509	321.2	9
0	72510	321.2	8.8
0	72511	321.2	8.6
0	72512	321.2	8.4
0	72513	321.2	8.2
0	72514	321.2	8
0	72515	321.2	7.8
0	72516	321.2	7.6
0	72517	321.2	7.4
0	72518	321.2	7.2
0	72519	321.2	7
0	72520	321.2	6.8
0	72521	321.2	6.6
0	72522	321.2	6.4
0	72523	321.2	6.2
0	72524	321.2	6
0	72525	321.2	5.8
0	72526	321.2	5.6
0	72527	321.2	5.4
0	72528	321.2	5.2
0	72529	321.2	5
0	72530	321.2	4.8
0	72531	321.2	4.6
0	72532	321.2	4.4
0	72533	321.2	4.2
0	72534	321.2	4
0	72535	321.2	3.8
0	72536	321.2	3.6
0	72537	321.2	3.4
0	72538	321.2	3.2
0	72539	321.2	3
0	72540	321.2	2.8
0	72541	321.2	2.6
0	72542	321.2	2.4
0	72543	321.2	2.2
0	72544	321.2	2
0	72545	321.2	1.8
0	72546	321.2	1.6
0	72547	321.2	1.4
0	83836	390.1	70.1
0	83837	390.1	69.9
0	83838	390.1	69.7
0	83839	390.1	69.5
0	83840	390.1	69.3
0	83841	390.1	69.1
0	83842	390.1	68.9
0	83843	390.1	68.7
0	83844	390.1	68.5
0	83845	390.1	68.3
0	83846	390.1	68.1
0	83847	390.1	67.9
0	83848	390.1	67.7
0	83849	390.1	67.5
0	83850	390.1	67.3
0	83851	390.1	67.1
0	83852	390.1	66.9
0	83853	390.1	66.7
0	83854	390.1	66.5
0	83855	390.1	66.3
0	83856	390.1	66.1
0	83857	390.1	65.9
0	83858	390.1	65.7
0	83859	390.1	65.5
0	83860	390.1	65.3
0	83861	390.1	65.1
0	83862	390.1	64.9
0	83863	390.1	64.7
0	83864	390.1	64.5
0	83865	390.1	64.3
0	83866	390.1	64.1
0	83867	390.1	63.9
0	83868	390.1	63.7
0	83869	390.1	63.5
0	83870	390.1	63.3
0	83871	390.1	63.1
0	83872	390.1	62.9
0	83873	390.1	62.7
0	83874	390.1	62.5
0	83875	390.1	62.3
0	83876	390.1	62.1
0	83877	390.1	61.9
0	83878	390.1	61.7
0	83879	390.1	61.5
0	83880	390.1	61.3
0	83881	390.1	61.1
0	83882	390.1	60.9
0	83883	390.1	60.7
0	83884	390.1	60.5
0	83885	390.1	60.3
0	83886	390.1	60.1
0	83887	390.1	59.9
0	83888	390.1	59.7
0	83889	390.1	59.5
0	83890	390.1	59.3
0	83891	390.1	59.1
0	83892	390.1	58.9
0	83893	390.1	58.7
0	83894	390.1	58.5
0	83895	390.1	58.3
0	83896	390.1	58.1
0	83897	390.1	57.9
0	83898	390.1	57.7
0	83899	390.1	57.5
0	83900	390.1	57.3
0	83901	390.1	57.1
0	83902	390.1	56.9
0	83903	390.1	56.7
0	83904	390.1	56.5
0	83905	390.1	56.3
0	83906	390.1	56.1
0	83907	390.1	55.9
0	83908	390.1	55.7
0	83909	390.1	55.5
0	83910	390.1	55.3
0	83911	390.1	55.1
0	83912	390.1	54.9
0	83913	390.1	54.7
0	83914	390.1	54.5
0	83915	390.1	54.3
0	83916	390.1	54.1
0	83917	390.1	53.9
0	83918	390.1	53.7
0	83919	390.1	53.5
0	83920	390.1	53.3
0	83921	390.1	53.1
0	83922	390.1	52.9
0	83923	390.1	52.7
0	83924	390.1	52.5
0	83925	390.1	52.3
0	83926	390.1	52.1
0	83927	390.1	51.9
0	83928	390.1	51.7
0	83929	390.1	51.5
0	83930	390.1	51.3
0	83931	390.1	51.1
0	83932	390.1	50.9
0	83933	390.1	50.7
0	83934	390.1	50.5
0	83935	390.1	50.3
0	83936	390.1	50.1
0	83937	390.1	49.9
0	83938	390.1	49.7
0	83939	390.1	49.5
0	83940	390.1	49.3
0	83941	390.1	49.1
0	83942	390.1	48.9
0	83943	390.1	48.7
0	83944	390.1	48.5
0	83945	390.1	48.3
0	83946	390.1	48.1
0	83947	390.1	47.9
0	83948	390.1	47.7
0	83949	390.1	47.5
0	83950	390.1	47.3
0	83951	390.1	47.1
0	83952	390.1	46.9
0	83953	390.1	46.7
0	83954	390.1	46.5
0	83955	390.1	46.3
0	83956	390.1	46.1
0	83957	390.1	45.9
0	83958	390.1	45.7
0	83959	390.1	45.5
0	83960	390.1	45.3
0	83961	390.1	45.1
0	83962	390.1	44.9
0	83963	390.1	44.7
0	83964	390.1	44.5
0	83965	390.1	44.3
0	83966	390.1	44.1
0	83967	390.1	43.9
0	83968	390.1	43.7
0	83969	390.1	43.5
0	83970	390.1	43.3
0	83971	390.1	43.1
0	83972	390.1	42.9
0	83973	390.1	42.7
0	83974	390.1	42.5
0	83975	390.1	42.3
0	83976	390.1	42.1
0	83977	390.1	41.9
0	83978	390.1	41.7
0	83979	390.1	41.5
0	83980	390.1	41.3
0	83981	390.1	41.1
0	83982	390.1	40.9
0	83983	390.1	40.7
0	83984	390.1	40.5
0	83985	390.1	40.3
0	83986	390.1	40.1
0	83987	390.1	39.9
0	83988	390.1	39.7
0	83989	390.1	39.5
0	83990	390.1	39.3
0	83991	390.1	39.1
0	83992	390.1	38.9
0	83993	390.1	38.7
0	83994	390.1	38.5
0	83995	390.1	38.3
0	83996	390.1	38.1
0	83997	390.1	37.9
0	83998	390.1	37.7
0	83999	390.1	37.5
0	84000	390.1	37.3
0	84001	390.1	37.1
0	84002	390.1	36.9
0	84003	390.1	36.7
0	84004	390.1	36.5
0	84005	390.1	36.3
0	84006	390.1	36.1
0	84007	390.1	35.9
0	84008	390.1	35.7
0	84009	390.1	35.5
0	84010	390.1	35.3
0	84011	390.1	35.1
0	84012	390.1	34.9
0	84013	390.1	34.7
0	84014	390.1	34.5
0	84015	390.1	34.3
0	84016	390.1	34.1
0	84017	390.1	33.9
0	84018	390.1	33.7
0	84019	390.1	33.5
0	84020	390.1	33.3
0	84021	390.1	33.1
0	84022	390.1	32.9
0	84023	390.1	32.7
0	84024	390.1	32.5
0	84025	390.1	32.3
0	84026	390.1	32.1
0	84027	390.1	31.9
0	84028	390.1	31.7
0	84029	390.1	31.5
0	84030	390.1	31.3
0	84031	390.1	31.1
0	84032	390.1	30.9
0	84033	390.1	30.7
0	84034	390.1	30.5
0	84035	390.1	30.3
0	84036	390.1	30.1
0	84037	390.1	29.9
0	84038	390.1	29.7
0	84039	390.1	29.5
0	84040	390.1	29.3
0	84041	390.1	29.1
0	84042	390.1	28.9
0	84043	390.1	28.7
0	84044	390.1	28.5
0	84045	390.1	28.3
0	84046	390.1	28.1
0	84047	390.1	27.9
0	84048	390.1	27.7
0	84049	390.1	27.5
0	84050	390.1	27.3
0	84051	390.1	27.1
0	84052	390.1	26.9
0	84053	390.1	26.7
0	84054	390.1	26.5
0	84055	390.1	26.3
0	84056	390.1	26.1
0	84057	390.1	25.9
0	84058	390.1	25.7
0	84059	390.1	25.5
0	84060	390.1	25.3
0	84061	390.1	25.1
0	84062	390.1	24.9
0	84063	390.1	24.7
0	84064	390.1	24.5
0	84065	390.1	24.3
0	84066	390.1	24.1
0	84067	390.1	23.9
0	84068	390.1	23.7
0	84069	390.1	23.5
0	84070	390.1	23.3
0	84071	390.1	23.1
0	84072	390.1	22.9
0	84073	390.1	22.7
0	84074	390.1	22.5
0	84075	390.1	22.3
0	84076	390.1	22.1
0	84077	390.1	21.9
0	84078	390.1	21.7
0	84079	390.1	21.5
0	84080	390.1	21.3
0	84081	390.1	21.1
0	84082	390.1	20.9
0	84083	390.1	20.7
0	84084	390.1	20.5
0	84085	390.1	20.3
0	84086	390.1	20.1
0	84087	390.1	19.9
0	84088	390.1	19.7
0	84089	390.1	19.5
0	84090	390.1	19.3
0	84091	390.1	19.1
0	84092	390.1	18.9
0	84093	390.1	18.7
0	84094	390.1	18.5
0	84095	390.1	18.3
0	84096	390.1	18.1
0	84097	390.1	17.9
0	84098	390.1	17.7
0	84099	390.1	17.5
0	84100	390.1	17.3
0	84101	390.1	17.1
0	84102	390.1	16.9
0	84103	390.1	16.7
0	84104	390.1	16.5
0	84105	390.1	16.3
0	84106	390.1	16.1
0	84107	390.1	15.9
0	84108	390.1	15.7
0	84109	390.1	15.5
0	84110	390.1	15.3
0	84111	390.1	15.1
0	84112	390.1	14.9
0	84113	390.1	14.7
0	84114	390.1	14.5
0	84115	390.1	14.3
0	84116	390.1	14.1
0	84117	390.1	13.9
0	84118	390.1	13.7
0	84119	390.1	13.5
0	84120	390.1	13.3
0	84121	390.1	13.1
0	84122	390.1	12.9
0	84123	390.1	12.7
0	84124	390.1	12.5
0	84125	390.1	12.3
0	84126	390.1	12.1
0	84127	390.1	11.9
0	84128	390.1	11.7
0	84129	390.1	11.5
0	84130	390.1	11.3
0	84131	390.1	11.1
0	84132	390.1	10.9
0	84133	390.1	10.7
0	84134	390.1	10.5
0	84135	390.1	10.3
0	84136	390.1	10.1
0	84137	390.1	9.9
0	84138	390.1	9.7
0	84139	390.1	9.5
0	84140	390.1	9.3
0	85810	390.2	9.2
0	85811	390.2	9
0	85812	390.2	8.8
0	85813	390.2	8.6
0	85814	390.2	8.4
0	85815	390.2	8.2
0	85816	390.2	8
0	85817	390.2	7.8
0	85818	390.2	7.6
0	85819	390.2	7.4
0	85820	390.2	7.2
0	85821	390.2	7
0	85822	390.2	6.8
0	85823	390.2	6.6
0	90131	422.1	38.3
0	90132	422.1	38.1
0	90133	422.1	37.9
0	90134	422.1	37.7
0	90135	422.1	37.5
0	90136	422.1	37.3
0	90137	422.1	37.1
0	90138	422.1	36.9
0	90139	422.1	36.7
0	90140	422.1	36.5
0	90141	422.1	36.3
0	90142	422.1	36.1
0	90143	422.1	35.9
0	90144	422.1	35.7
0	90145	422.1	35.5
0	90146	422.1	35.3
0	90147	422.1	35.1
0	90148	422.1	34.9
0	90149	422.1	34.7
0	90150	422.1	34.5
0	90151	422.1	34.3
0	123205	457.1	28.9
0	123206	457.1	26.3
0	123207	457.1	28.7
0	123208	457.1	26.1
0	123209	457.1	28.5
0	123210	457.1	25.9
0	123211	457.1	28.3
0	123212	457.1	25.7
0	123213	457.1	28.1
0	123214	457.1	25.5
0	123215	457.1	27.9
0	123216	457.1	25.3
0	123217	457.1	27.5
0	123218	457.1	25.1
0	123219	457.1	29.9
0	123220	457.1	27.3
0	123221	457.1	24.9
0	123222	457.1	29.7
0	123223	457.1	27.1
0	123224	457.1	24.7
0	123225	457.1	29.5
0	123226	457.1	26.9
0	123227	457.1	24.5
0	123228	457.1	29.3
0	123229	457.1	26.7
0	123230	457.1	24.3
0	123231	457.1	29.1
0	123232	457.1	69.1
0	123233	457.1	68.9
0	123234	457.1	68.7
0	123235	457.1	68.5
0	123236	457.1	68.3
0	123237	457.1	68.1
0	123238	457.1	67.9
0	123239	457.1	67.7
0	123240	457.1	67.5
0	123241	457.1	67.3
0	123242	457.1	67.1
0	123243	457.1	66.9
0	123244	457.1	66.7
0	123245	457.1	66.5
0	123246	457.1	66.3
0	123247	457.1	66.1
0	123248	457.1	65.9
0	123249	457.1	65.7
0	123250	457.1	65.5
0	123251	457.1	65.3
0	123252	457.1	65.1
0	123253	457.1	64.9
0	123254	457.1	64.7
0	123255	457.1	64.5
0	123256	457.1	64.3
0	123257	457.1	64.1
0	123258	457.1	63.9
0	123259	457.1	63.7
0	123260	457.1	63.5
0	123261	457.1	63.3
0	123262	457.1	63.1
0	123263	457.1	62.9
0	123264	457.1	62.7
0	123265	457.1	62.5
0	123266	457.1	62.3
0	123267	457.1	62.1
0	123268	457.1	61.9
0	123269	457.1	61.7
0	123270	457.1	61.5
0	123271	457.1	61.3
0	123272	457.1	61.1
0	123273	457.1	60.9
0	123274	457.1	60.7
0	123275	457.1	60.5
0	123276	457.1	60.3
0	123277	457.1	60.1
0	123278	457.1	59.9
0	123279	457.1	59.7
0	123280	457.1	59.5
0	123281	457.1	59.3
0	123282	457.1	59.1
0	123283	457.1	58.9
0	123284	457.1	58.7
0	123285	457.1	58.5
0	123286	457.1	58.3
0	123287	457.1	58.1
0	123288	457.1	57.9
0	123289	457.1	57.7
0	123290	457.1	57.5
0	123291	457.1	57.3
0	123292	457.1	57.1
0	123293	457.1	56.9
0	123294	457.1	56.7
0	123295	457.1	56.5
0	123296	457.1	56.3
0	123297	457.1	56.1
0	123298	457.1	55.9
0	123299	457.1	55.7
0	123300	457.1	55.5
0	123301	457.1	55.3
0	123302	457.1	55.1
0	123303	457.1	54.9
0	123304	457.1	54.7
0	123305	457.1	54.5
0	123306	457.1	54.3
0	123307	457.1	54.1
0	123308	457.1	53.9
0	123309	457.1	53.7
0	123310	457.1	53.5
0	123311	457.1	53.3
0	123312	457.1	53.1
0	123313	457.1	52.9
0	123314	457.1	52.7
0	123315	457.1	52.5
0	123316	457.1	52.3
0	123317	457.1	52.1
0	123318	457.1	51.9
0	123319	457.1	51.7
0	123320	457.1	51.5
0	123321	457.1	51.3
0	123322	457.1	51.1
0	123323	457.1	50.9
0	123324	457.1	50.7
0	123325	457.1	50.5
0	123326	457.1	50.3
0	123327	457.1	50.1
0	123328	457.1	49.9
0	123329	457.1	49.7
0	123330	457.1	49.5
0	123331	457.1	49.3
0	123332	457.1	49.1
0	123333	457.1	48.9
0	123334	457.1	48.7
0	123335	457.1	48.5
0	123336	457.1	48.3
0	123337	457.1	48.1
0	123338	457.1	47.9
0	123339	457.1	47.7
0	123340	457.1	47.5
0	123341	457.1	47.3
0	123342	457.1	47.1
0	123343	457.1	46.9
0	123344	457.1	46.7
0	123345	457.1	46.5
0	123346	457.1	46.3
0	123347	457.1	46.1
0	123348	457.1	45.9
0	123349	457.1	45.7
0	123350	457.1	45.5
0	123351	457.1	45.3
0	123352	457.1	45.1
0	123353	457.1	44.9
0	123354	457.1	44.7
0	123355	457.1	44.5
0	123356	457.1	44.3
0	123357	457.1	44.1
0	123358	457.1	43.9
0	123359	457.1	43.7
0	123360	457.1	43.5
0	123361	457.1	43.3
0	123362	457.1	43.1
0	123363	457.1	42.9
0	123364	457.1	42.7
0	123365	457.1	42.5
0	123366	457.1	42.3
0	123367	457.1	42.1
0	123368	457.1	41.9
0	123369	457.1	41.7
0	123370	457.1	41.5
0	123371	457.1	41.3
0	123372	457.1	41.1
0	123373	457.1	40.9
0	123374	457.1	40.7
0	123375	457.1	40.5
0	123376	457.1	40.3
0	123377	457.1	40.1
0	123378	457.1	39.9
0	123379	457.1	39.7
0	123380	457.1	39.5
0	123381	457.1	39.3
0	123382	457.1	39.1
0	123383	457.1	38.9
0	123384	457.1	38.7
0	123385	457.1	38.5
0	123386	457.1	38.3
0	123387	457.1	38.1
0	123388	457.1	37.9
0	123389	457.1	37.7
0	123390	457.1	37.5
0	123391	457.1	37.3
0	123392	457.1	37.1
0	123393	457.1	36.9
0	123394	457.1	36.7
0	123395	457.1	36.5
0	123396	457.1	36.3
0	123397	457.1	36.1
0	123398	457.1	35.9
0	123399	457.1	35.7
0	123400	457.1	35.5
0	123401	457.1	35.3
0	123402	457.1	35.1
0	123403	457.1	34.9
0	123404	457.1	34.7
0	123405	457.1	34.5
0	123406	457.1	34.3
0	123407	457.1	34.1
0	123408	457.1	33.9
0	123409	457.1	33.7
0	123410	457.1	33.5
0	123411	457.1	33.3
0	123412	457.1	33.1
0	123413	457.1	32.9
0	123414	457.1	32.7
0	123415	457.1	32.5
0	123416	457.1	32.3
0	123417	457.1	32.1
0	123418	457.1	31.9
0	123419	457.1	31.7
0	123420	457.1	31.5
0	123421	457.1	31.3
0	123422	457.1	31.1
0	123423	457.1	30.9
0	123424	457.1	30.7
0	123425	457.1	30.5
0	123426	457.1	30.3
0	123427	457.1	27.7
0	123428	457.1	30.1
0	123429	457.1	26.5
0	123430	457.1	24.1
0	123431	457.1	23.9
0	123432	457.1	23.7
0	123433	457.1	23.5
0	123434	457.1	23.3
0	141297	521.1	87.1
0	141298	521.1	86.9
0	141299	521.1	86.7
0	141300	521.1	86.5
0	141301	521.1	86.3
0	141302	521.1	86.1
0	141303	521.1	85.9
0	141304	521.1	85.7
0	141305	521.1	85.5
0	141306	521.1	85.3
0	141307	521.1	85.1
0	141308	521.1	84.9
0	141309	521.1	84.7
0	141310	521.1	84.5
0	141311	521.1	84.3
0	141312	521.1	84.1
0	141313	521.1	83.9
0	141314	521.1	83.7
0	141315	521.1	83.5
0	141316	521.1	83.3
0	141317	521.1	83.1
0	141318	521.1	82.9
0	141319	521.1	82.7
0	141320	521.1	82.5
0	141321	521.1	82.3
0	141322	521.1	82.1
0	141323	521.1	81.9
0	141324	521.1	81.7
0	141325	521.1	81.5
0	141326	521.1	81.3
0	141327	521.1	81.1
0	141328	521.1	80.9
0	141329	521.1	80.7
0	141330	521.1	80.5
0	141331	521.1	80.3
0	141332	521.1	80.1
0	141333	521.1	79.9
0	141334	521.1	79.7
0	141335	521.1	79.5
0	141336	521.1	79.3
0	141337	521.1	79.1
0	141338	521.1	78.9
0	141339	521.1	78.7
0	141340	521.1	78.5
0	141341	521.1	78.3
0	141342	521.1	78.1
0	141343	521.1	77.9
0	141344	521.1	77.7
0	141345	521.1	77.5
0	141346	521.1	77.3
0	141347	521.1	77.1
0	141348	521.1	76.9
0	141349	521.1	76.7
0	141350	521.1	76.5
0	141351	521.1	76.3
0	141352	521.1	76.1
0	141353	521.1	75.9
0	141354	521.1	75.7
0	141355	521.1	75.5
0	141356	521.1	75.3
0	141357	521.1	75.1
0	141358	521.1	74.9
0	141359	521.1	74.7
0	141360	521.1	74.5
0	141361	521.1	74.3
0	141362	521.1	74.1
0	141363	521.1	73.9
0	141364	521.1	73.7
0	141365	521.1	73.5
0	141366	521.1	73.3
0	141367	521.1	73.1
0	141368	521.1	72.9
0	141369	521.1	72.7
0	141370	521.1	72.5
0	141371	521.1	72.3
0	141372	521.1	72.1
0	141373	521.1	71.9
0	141374	521.1	71.7
0	141375	521.1	71.5
0	141376	521.1	71.3
0	141377	521.1	71.1
0	141378	521.1	70.9
0	141379	521.1	70.7
0	141380	521.1	70.5
0	141381	521.1	70.3
0	141382	521.1	70.1
0	141383	521.1	69.9
0	141384	521.1	69.7
0	141385	521.1	69.5
0	141386	521.1	69.3
0	141387	521.1	69.1
0	141388	521.1	68.9
0	141389	521.1	68.7
0	141390	521.1	68.5
0	141391	521.1	68.3
0	141392	521.1	68.1
0	141393	521.1	67.9
0	141394	521.1	67.7
0	141395	521.1	67.5
0	141396	521.1	67.3
0	141397	521.1	67.1
0	141398	521.1	66.9
0	141399	521.1	66.7
0	141400	521.1	66.5
0	141401	521.1	66.3
0	141402	521.1	66.1
0	141403	521.1	65.9
0	141404	521.1	65.7
0	141405	521.1	65.5
0	141406	521.1	65.3
0	141407	521.1	65.1
0	141408	521.1	64.9
0	141409	521.1	64.7
0	141410	521.1	64.5
0	141411	521.1	64.3
0	141412	521.1	64.1
0	141413	521.1	63.9
0	141414	521.1	63.7
0	141415	521.1	63.5
0	141416	521.1	63.3
0	141417	521.1	63.1
0	141418	521.1	62.9
0	141419	521.1	62.7
0	141420	521.1	62.5
0	141421	521.1	62.3
0	141422	521.1	62.1
0	141423	521.1	61.9
0	141424	521.1	61.7
0	141425	521.1	61.5
0	141426	521.1	61.3
0	141427	521.1	61.1
0	141428	521.1	60.9
0	141429	521.1	60.7
0	141430	521.1	60.5
0	141431	521.1	60.3
0	141432	521.1	60.1
0	141433	521.1	59.9
0	141434	521.1	59.7
0	141435	521.1	59.5
0	141436	521.1	59.3
0	141437	521.1	59.1
0	141438	521.1	58.9
0	141439	521.1	58.7
0	141440	521.1	58.5
0	141441	521.1	58.3
0	141442	521.1	58.1
0	141443	521.1	57.9
0	141444	521.1	57.7
0	141445	521.1	57.5
0	141446	521.1	57.3
0	141447	521.1	57.1
0	141448	521.1	56.9
0	141449	521.1	56.7
0	141450	521.1	56.5
0	141451	521.1	56.3
0	141452	521.1	56.1
0	141453	521.1	55.9
0	141454	521.1	55.7
0	141455	521.1	55.5
0	141456	521.1	55.3
0	141457	521.1	55.1
0	141458	521.1	54.9
0	141459	521.1	54.7
0	141460	521.1	54.5
0	141461	521.1	54.3
0	141462	521.1	54.1
0	141463	521.1	53.9
0	141464	521.1	53.7
0	141465	521.1	53.5
0	141466	521.1	53.3
0	141467	521.1	53.1
0	141468	521.1	52.9
0	141469	521.1	52.7
0	141470	521.1	52.5
0	141471	521.1	51.1
0	141472	521.1	50.9
0	141473	521.1	50.7
0	141474	521.1	50.5
0	141475	521.1	50.3
0	141476	521.1	50.1
0	141477	521.1	49.9
0	141478	521.1	49.7
0	141479	521.1	49.5
0	141480	521.1	49.3
0	141481	521.1	52.3
0	141482	521.1	52.1
0	141483	521.1	51.9
0	141484	521.1	51.7
0	141485	521.1	51.5
0	141486	521.1	51.3
0	141487	521.1	49.1
0	141488	521.1	48.9
0	141489	521.1	48.7
0	141490	521.1	48.5
0	141491	521.1	48.3
0	141492	521.1	48.1
0	141493	521.1	47.9
0	141494	521.1	47.7
0	141495	521.1	47.5
0	141496	521.1	47.3
0	141497	521.1	47.1
0	141498	521.1	46.9
0	141499	521.1	46.7
0	141500	521.1	46.5
0	141501	521.1	46.3
0	141502	521.1	46.1
0	141503	521.1	45.9
0	141504	521.1	45.7
0	141505	521.1	45.5
0	141506	521.1	45.3
0	141507	521.1	45.1
0	141508	521.1	44.9
0	141509	521.1	44.7
0	141510	521.1	44.5
0	141511	521.1	44.3
0	142988	521.4	43.4
0	142989	521.4	43.2
0	142990	521.4	43
0	142991	521.4	42.8
0	142992	521.4	42.6
0	142993	521.4	42.4
0	142994	521.4	42.2
0	142995	521.4	42
0	142996	521.4	41.8
0	142997	521.4	41.6
0	142998	521.4	41.4
0	142999	521.4	41.2
0	143000	521.4	41
0	143001	521.4	40.8
0	143002	521.4	40.6
0	143003	521.4	40.4
0	143004	521.4	40.2
0	143005	521.4	40
0	143006	521.4	39.8
0	143007	521.4	39.6
0	143008	521.4	39.4
0	143009	521.4	39.2
0	143010	521.4	39
0	143011	521.4	38.8
0	143012	521.4	38.6
0	143013	521.4	38.4
0	143014	521.4	38.2
0	143015	521.4	38
0	143016	521.4	37.8
0	143017	521.4	37.6
0	143018	521.4	37.4
0	143019	521.4	37.2
0	143020	521.4	37
0	143021	521.4	36.8
0	143022	521.4	36.6
0	143023	521.4	36.4
0	143024	521.4	36.2
0	143025	521.4	36
0	143026	521.4	35.8
0	143027	521.4	35.6
0	143028	521.4	35.4
0	143029	521.4	35.2
0	143030	521.4	35
0	143031	521.4	34.8
0	143032	521.4	34.6
0	143033	521.4	34.4
0	143034	521.4	34.2
0	143035	521.4	34
0	143036	521.4	33.8
0	143037	521.4	33.6
0	143038	521.4	33.4
0	143039	521.4	33.2
0	143040	521.4	33
0	143041	521.4	32.8
0	143042	521.4	32.6
0	143043	521.4	32.4
0	143044	521.4	32.2
0	143045	521.4	32
0	143046	521.4	31.8
0	143047	521.4	31.6
0	143048	521.4	31.4
0	143049	521.4	31.2
0	143050	521.4	31
0	143051	521.4	30.8
0	143052	521.4	30.6
0	143053	521.4	30.4
0	143054	521.4	30.2
0	143055	521.4	30
0	143056	521.4	29.8
0	143057	521.4	29.6
0	143058	521.4	29.4
0	143059	521.4	29.2
0	143060	521.4	29
0	143061	521.4	28.8
0	143062	521.4	28.6
0	143063	521.4	28.4
0	143064	521.4	28.2
0	143065	521.4	28
0	143066	521.4	27.8
0	143067	521.4	27.6
0	143068	521.4	27.4
0	143069	521.4	27.2
0	143070	521.4	27
0	143071	521.4	26.8
0	143072	521.4	26.6
0	143073	521.4	26.4
0	143074	521.4	26.2
0	143075	521.4	26
0	143076	521.4	25.8
0	143077	521.4	25.6
0	143078	521.4	25.4
0	143079	521.4	25.2
0	143080	521.4	25
0	143081	521.4	24.8
0	143082	521.4	24.6
0	143083	521.4	24.4
0	143084	521.4	24.2
0	143085	521.4	24
0	143086	521.4	23.8
0	143087	521.4	23.6
0	143088	521.4	23.4
0	143089	521.4	23.2
0	143090	521.4	23
0	143091	521.4	22.8
0	143092	521.4	22.6
0	143093	521.4	22.4
0	143094	521.4	22.2
0	143095	521.4	22
0	143096	521.4	21.8
0	143097	521.4	21.6
0	143098	521.4	21.4
0	143099	521.4	21.2
0	143100	521.4	21
0	143101	521.4	20.8
0	143102	521.4	20.6
0	143103	521.4	20.4
0	143104	521.4	20.2
0	143105	521.4	20
0	143106	521.4	19.8
0	143107	521.4	19.6
0	143108	521.4	19.4
0	143109	521.4	19.2
0	143110	521.4	19
0	143111	521.4	18.8
0	143112	521.4	18.6
0	143113	521.4	18.4
0	143114	521.4	18.2
0	143115	521.4	18
0	143116	521.4	17.8
0	143117	521.4	17.6
0	143118	521.4	17.4
0	143119	521.4	17.2
0	143120	521.4	17
0	143121	521.4	16.8
0	143122	521.4	16.6
0	143123	521.4	16.4
0	143124	521.4	16.2
0	143125	521.4	16
0	143126	521.4	15.8
0	143127	521.4	15.6
0	143128	521.4	15.4
0	143129	521.4	15.2
0	143130	521.4	15
0	143131	521.4	14.8
0	143132	521.4	14.6
0	143133	521.4	14.4
0	143134	521.4	14.2
0	143135	521.4	14
0	143136	521.4	13.8
0	143137	521.4	13.6
0	143138	521.4	13.4
0	143139	521.4	13.2
0	143140	521.4	13
0	143141	521.4	12.8
0	143142	521.4	12.6
0	143143	521.4	12.4
0	143144	521.4	12.2
0	143145	521.4	12
0	143146	521.4	11.8
0	143147	521.4	11.6
0	143148	521.4	11.4
0	143149	521.4	11.2
0	143150	521.4	11
0	143151	521.4	10.8
0	143152	521.4	10.6
0	143153	521.4	10.4
0	143154	521.4	10.2
0	143155	521.4	10
0	143156	521.4	9.8
0	143157	521.4	9.6
0	143158	521.4	9.4
0	143159	521.4	9.2
0	143160	521.4	9
0	143161	521.4	8.8
0	143162	521.4	8.6
0	143163	521.4	8.4
0	143164	521.4	8.2
0	143165	521.4	8
0	143166	521.4	7.8
0	143167	521.4	7.6
0	143168	521.4	7.4
0	143169	521.4	7.2
0	143170	521.4	7
0	143171	521.4	6.8
0	143172	521.4	6.6
0	143173	521.4	6.4
0	143174	521.4	6.2
0	143175	521.4	6
0	143176	521.4	5.8
0	143177	521.4	5.6
0	143178	521.4	5.4
0	143179	521.4	5.2
0	143180	521.4	5
0	143181	521.4	4.8
0	143182	521.4	4.6
0	143183	521.4	4.4
0	143184	521.4	4.2
0	143185	521.4	4
0	143186	521.4	3.8
0	143187	521.4	3.6
0	143188	521.4	3.4
0	143189	521.4	3.2
0	143190	521.4	3
0	143191	521.4	2.8
0	143192	521.4	2.6
0	143193	521.4	2.4
0	143194	521.4	2.2
0	143195	521.4	2
0	143196	521.4	1.8
0	143197	521.4	1.6
0	154672	582.1	105.1
0	154673	582.1	104.9
0	154674	582.1	104.7
0	154675	582.1	104.5
0	154676	582.1	104.3
0	154677	582.1	62.1
0	154678	582.1	61.9
0	154679	582.1	61.7
0	154680	582.1	61.5
0	154681	582.1	61.3
0	154682	582.1	61.1
0	154683	582.1	60.9
0	154684	582.1	60.7
0	154685	582.1	60.5
0	154686	582.1	60.3
0	154687	582.1	60.1
0	154688	582.1	59.9
0	154689	582.1	59.7
0	154690	582.1	59.5
0	154691	582.1	59.3
0	154692	582.1	59.1
0	154693	582.1	58.9
0	154694	582.1	58.7
0	154695	582.1	58.5
0	154696	582.1	58.3
0	154697	582.1	58.1
0	154698	582.1	57.9
0	154699	582.1	57.7
0	154700	582.1	57.5
0	154701	582.1	57.3
0	154702	582.1	57.1
0	154703	582.1	56.9
0	154704	582.1	56.7
0	154705	582.1	56.5
0	154706	582.1	56.3
0	154707	582.1	56.1
0	154708	582.1	55.9
0	154709	582.1	55.7
0	154710	582.1	55.5
0	154711	582.1	55.3
0	154712	582.1	55.1
0	154713	582.1	54.9
0	154714	582.1	54.7
0	154715	582.1	54.5
0	154716	582.1	54.3
0	154717	582.1	54.1
0	154718	582.1	53.9
0	154719	582.1	53.7
0	154720	582.1	53.5
0	154721	582.1	53.3
0	154722	582.1	53.1
0	154723	582.1	52.9
0	154724	582.1	52.7
0	154725	582.1	52.5
0	154726	582.1	52.3
0	154727	582.1	52.1
0	154728	582.1	51.9
0	154729	582.1	51.7
0	154730	582.1	51.5
0	154731	582.1	51.3
0	154732	582.1	51.1
0	154733	582.1	50.9
0	154734	582.1	50.7
0	154735	582.1	50.5
0	154736	582.1	50.3
0	154737	582.1	50.1
0	154738	582.1	49.9
0	154739	582.1	49.7
0	154740	582.1	49.5
0	154741	582.1	49.3
0	154742	582.1	49.1
0	154743	582.1	48.9
0	154744	582.1	48.7
0	154745	582.1	48.5
0	154746	582.1	48.3
0	154747	582.1	48.1
0	154748	582.1	47.9
0	154749	582.1	47.7
0	154750	582.1	47.5
0	154751	582.1	47.3
0	154752	582.1	47.1
0	154753	582.1	46.9
0	154754	582.1	46.7
0	154755	582.1	46.5
0	154756	582.1	46.3
0	154757	582.1	46.1
0	154758	582.1	45.9
0	154759	582.1	45.7
0	154760	582.1	45.5
0	154761	582.1	45.3
0	154762	582.1	45.1
0	154763	582.1	44.9
0	154764	582.1	44.7
0	154765	582.1	44.5
0	154766	582.1	44.3
0	154767	582.1	44.1
0	154768	582.1	43.9
0	154769	582.1	43.7
0	154770	582.1	43.5
0	154771	582.1	43.3
0	154772	582.1	43.1
0	154773	582.1	42.9
0	154774	582.1	42.7
0	154775	582.1	42.5
0	154776	582.1	42.3
0	154777	582.1	42.1
0	154778	582.1	41.9
0	154779	582.1	41.7
0	154780	582.1	41.5
0	154781	582.1	41.3
0	154782	582.1	41.1
0	154783	582.1	40.9
0	154784	582.1	40.7
0	154785	582.1	40.5
0	154786	582.1	40.3
0	154787	582.1	40.1
0	154788	582.1	39.9
0	154789	582.1	39.7
0	154790	582.1	39.5
0	154791	582.1	39.3
0	154792	582.1	39.1
0	154793	582.1	38.9
0	154794	582.1	38.7
0	154795	582.1	38.5
0	154796	582.1	38.3
0	154797	582.1	38.1
0	154798	582.1	37.9
0	154799	582.1	37.7
0	154800	582.1	37.5
0	154801	582.1	37.3
0	154802	582.1	37.1
0	154803	582.1	36.9
0	154804	582.1	36.7
0	154805	582.1	36.5
0	154806	582.1	36.3
0	154807	582.1	36.1
0	154808	582.1	35.9
0	154809	582.1	35.7
0	154810	582.1	35.5
0	154811	582.1	35.3
0	154812	582.1	35.1
0	154813	582.1	34.9
0	154814	582.1	34.7
0	154815	582.1	34.5
0	154816	582.1	34.3
0	154817	582.1	34.1
0	154818	582.1	33.9
0	154819	582.1	33.7
0	154820	582.1	33.5
0	154821	582.1	33.3
0	154822	582.1	33.1
0	154823	582.1	32.9
0	154824	582.1	32.7
0	154825	582.1	32.5
0	154826	582.1	32.3
0	154827	582.1	32.1
0	154828	582.1	31.9
0	154829	582.1	31.7
0	154830	582.1	31.5
0	154831	582.1	31.3
0	154832	582.1	31.1
0	154833	582.1	30.9
0	154834	582.1	30.7
0	154835	582.1	30.5
0	154836	582.1	30.3
0	154837	582.1	30.1
0	154838	582.1	29.9
0	154839	582.1	29.7
0	154840	582.1	29.5
0	154841	582.1	29.3
0	154842	582.1	29.1
0	154843	582.1	28.9
0	154844	582.1	28.7
0	154845	582.1	28.5
0	154846	582.1	28.3
0	154847	582.1	28.1
0	154848	582.1	27.9
0	154849	582.1	27.7
0	154850	582.1	27.5
0	154851	582.1	27.3
0	154852	582.1	27.1
0	154853	582.1	26.9
0	154854	582.1	26.7
0	154855	582.1	26.5
0	154856	582.1	26.3
0	154857	582.1	26.1
0	154858	582.1	25.9
0	154859	582.1	25.7
0	154860	582.1	25.5
0	154861	582.1	25.3
0	154862	582.1	25.1
0	154863	582.1	24.9
0	154864	582.1	24.7
0	154865	582.1	24.5
0	154866	582.1	24.3
0	154867	582.1	24.1
0	154868	582.1	23.9
0	154869	582.1	23.7
0	154870	582.1	23.5
0	154871	582.1	23.3
0	154872	582.1	23.1
0	154873	582.1	22.9
0	154874	582.1	22.7
0	154875	582.1	22.5
0	154876	582.1	22.3
0	154877	582.1	22.1
0	154878	582.1	21.9
0	154879	582.1	21.7
0	154880	582.1	21.5
0	154881	582.1	21.3
0	154882	582.1	21.1
0	154883	582.1	20.9
0	154884	582.1	20.7
0	154885	582.1	20.5
0	154886	582.1	20.3
0	154887	582.1	20.1
0	154888	582.1	19.9
0	154889	582.1	19.7
0	154890	582.1	19.5
0	154891	582.1	19.3
0	154892	582.1	19.1
0	154893	582.1	18.9
0	154894	582.1	18.7
0	154895	582.1	18.5
0	154896	582.1	18.3
0	154897	582.1	18.1
0	154898	582.1	17.9
0	154899	582.1	17.7
0	154900	582.1	17.5
0	154901	582.1	17.3
0	154902	582.1	17.1
0	154903	582.1	16.9
0	154904	582.1	16.7
0	154905	582.1	16.5
0	154906	582.1	16.3
0	154907	582.1	16.1
0	154908	582.1	15.9
0	154909	582.1	15.7
0	154910	582.1	15.5
0	154911	582.1	15.3
0	154912	582.1	15.1
0	154913	582.1	14.9
0	154914	582.1	14.7
0	154915	582.1	14.5
0	154916	582.1	14.3
0	154917	582.1	14.1
0	154918	582.1	13.9
0	154919	582.1	13.7
0	154920	582.1	13.5
0	154921	582.1	13.3
0	154922	582.1	13.1
0	154923	582.1	12.9
0	154924	582.1	12.7
0	154925	582.1	12.5
0	154926	582.1	12.3
0	154927	582.1	12.1
0	154928	582.1	11.9
0	154929	582.1	11.7
0	154930	582.1	11.5
0	154931	582.1	11.3
0	154932	582.1	11.1
0	154933	582.1	10.9
0	154934	582.1	10.7
0	154935	582.1	10.5
0	154936	582.1	10.3
0	154937	582.1	10.1
0	154938	582.1	9.9
0	154939	582.1	9.7
0	154940	582.1	9.5
0	154941	582.1	9.3
0	154942	582.1	9.1
0	154943	582.1	8.9
0	154944	582.1	8.7
0	154945	582.1	8.5
0	154946	582.1	8.3
0	154947	582.1	8.1
0	154948	582.1	7.9
0	154949	582.1	7.7
0	154950	582.1	7.5
0	154951	582.1	7.3
0	154952	582.1	7.1
0	154953	582.1	6.9
0	154954	582.1	6.7
0	154955	582.1	6.5
0	154956	582.1	6.3
0	154957	582.1	6.1
0	154958	582.1	5.9
0	154959	582.1	5.7
0	154960	582.1	5.5
0	154961	582.1	5.3
0	154962	582.1	5.1
0	154963	582.1	4.9
0	154964	582.1	4.7
0	154965	582.1	4.5
0	154966	582.1	4.3
0	154967	582.1	4.1
0	154968	582.1	3.9
0	154969	582.1	3.7
0	154970	582.1	3.5
0	154971	582.1	3.3
0	154972	582.1	3.1
0	154973	582.1	2.9
0	154974	582.1	2.7
0	154975	582.1	2.5
0	154976	582.1	2.3
0	154977	582.1	2.1
0	154978	582.1	1.9
0	154979	582.1	1.7
0	154980	582.1	1.5
0	155008	582.2	1.4
0	155124	583.4	2.4
0	155125	583.4	2.2
0	155126	583.4	2
0	155127	583.4	1.8
0	155128	583.4	1.6
0	155129	583.4	1.4
0	155150	583.6	1.4
0	155171	583.8	1.4
0	155190	584	1.4
0	155209	584.2	1.4
0	155227	584.4	1.4
0	155245	584.6	1.4
0	155263	584.8	1.4
0	155456	585	1.4
0	164242	629.1	45.3
0	164243	629.1	45.1
0	164244	629.1	44.9
0	164245	629.1	44.7
0	164246	629.1	44.5
0	164247	629.1	44.3
0	164248	629.1	44.1
0	164249	629.1	43.9
0	164250	629.1	43.7
0	164251	629.1	43.5
0	164252	629.1	43.3
0	164253	629.1	43.1
0	164254	629.1	42.9
0	164255	629.1	42.7
0	164256	629.1	42.5
0	164257	629.1	42.3
0	171296	658.1	71.1
0	171297	658.1	70.9
0	171298	658.1	70.7
0	171299	658.1	70.5
0	171300	658.1	70.3
0	171301	658.1	70.1
0	171302	658.1	69.9
0	171303	658.1	69.7
0	171304	658.1	69.5
0	171305	658.1	69.3
0	171306	658.1	69.1
0	171307	658.1	68.9
0	171308	658.1	68.7
0	171309	658.1	68.5
0	171310	658.1	68.3
0	171311	658.1	68.1
0	171312	658.1	67.9
0	171313	658.1	67.7
0	171314	658.1	67.5
0	171315	658.1	67.3
0	171316	658.1	67.1
0	171317	658.1	66.9
0	171318	658.1	66.7
0	171319	658.1	66.5
0	171320	658.1	66.3
0	171321	658.1	66.1
0	171322	658.1	65.9
0	171323	658.1	65.7
0	171324	658.1	65.5
0	171325	658.1	65.3
0	171326	658.1	65.1
0	171327	658.1	64.9
0	171328	658.1	64.7
0	171329	658.1	64.5
0	171330	658.1	64.3
0	171331	658.1	64.1
0	171332	658.1	63.9
0	171333	658.1	63.7
0	171334	658.1	63.5
0	171335	658.1	63.3
0	171336	658.1	63.1
0	171337	658.1	62.9
0	171338	658.1	62.7
0	171339	658.1	62.5
0	171340	658.1	62.3
0	171341	658.1	62.1
0	171342	658.1	61.9
0	171343	658.1	61.7
0	171344	658.1	61.5
0	171345	658.1	61.3
0	171346	658.1	61.1
0	171347	658.1	60.9
0	171348	658.1	60.7
0	171349	658.1	60.5
0	171350	658.1	60.3
0	171351	658.1	60.1
0	171352	658.1	59.9
0	171353	658.1	59.7
0	171354	658.1	59.5
0	171355	658.1	59.3
0	171356	658.1	59.1
0	171357	658.1	58.9
0	171358	658.1	58.7
0	171359	658.1	58.5
0	171360	658.1	58.3
0	171361	658.1	58.1
0	171362	658.1	57.9
0	171363	658.1	57.7
0	171364	658.1	57.5
0	171365	658.1	57.3
0	171366	658.1	57.1
0	171367	658.1	56.9
0	171368	658.1	56.7
0	171369	658.1	56.5
0	171370	658.1	56.3
0	171371	658.1	56.1
0	171372	658.1	55.9
0	171373	658.1	55.7
0	171374	658.1	55.5
0	171375	658.1	55.3
0	171376	658.1	55.1
0	171377	658.1	54.9
0	171378	658.1	54.7
0	171379	658.1	54.5
0	171380	658.1	54.3
0	171381	658.1	54.1
0	171382	658.1	53.9
0	171383	658.1	53.7
0	171384	658.1	53.5
0	171385	658.1	53.3
0	171386	658.1	53.1
0	171387	658.1	52.9
0	171388	658.1	52.7
0	171389	658.1	52.5
0	171390	658.1	52.3
0	171391	658.1	52.1
0	171392	658.1	51.9
0	171393	658.1	51.7
0	171394	658.1	51.5
0	171395	658.1	51.3
0	171396	658.1	51.1
0	171397	658.1	50.9
0	171398	658.1	50.7
0	171399	658.1	50.5
0	171400	658.1	50.3
0	171401	658.1	50.1
0	171402	658.1	49.9
0	171403	658.1	49.7
0	171404	658.1	49.5
0	171405	658.1	49.3
0	171406	658.1	49.1
0	171407	658.1	48.9
0	171408	658.1	48.7
0	171409	658.1	48.5
0	171410	658.1	48.3
0	171411	658.1	48.1
0	171412	658.1	47.9
0	171413	658.1	47.7
0	171414	658.1	47.5
0	171415	658.1	47.3
0	171416	658.1	47.1
0	171417	658.1	46.9
0	171418	658.1	46.7
0	171419	658.1	46.5
0	171420	658.1	46.3
0	171421	658.1	46.1
0	171422	658.1	45.9
0	171423	658.1	45.7
0	171424	658.1	45.5
0	171425	658.1	45.3
0	171426	658.1	45.1
0	171427	658.1	44.9
0	171428	658.1	44.7
0	171429	658.1	44.5
0	171430	658.1	44.3
0	171431	658.1	44.1
0	171432	658.1	43.9
0	171433	658.1	43.7
0	171434	658.1	43.5
0	171435	658.1	43.3
0	171436	658.1	43.1
0	171437	658.1	42.9
0	171438	658.1	42.7
0	171439	658.1	42.5
0	171440	658.1	42.3
0	171441	658.1	42.1
0	171442	658.1	41.9
0	171443	658.1	41.7
0	171444	658.1	41.5
0	171445	658.1	41.3
0	171446	658.1	41.1
0	171447	658.1	40.9
0	171448	658.1	40.7
0	171449	658.1	40.5
0	171450	658.1	40.3
0	171451	658.1	40.1
0	171452	658.1	39.9
0	171453	658.1	39.7
0	171454	658.1	39.5
0	171455	658.1	39.3
0	171456	658.1	39.1
0	171457	658.1	38.9
0	171458	658.1	38.7
0	171459	658.1	38.5
0	171460	658.1	38.3
0	171461	658.1	38.1
0	171462	658.1	37.9
0	171463	658.1	37.7
0	171464	658.1	37.5
0	171465	658.1	37.3
0	171466	658.1	37.1
0	171467	658.1	36.9
0	171468	658.1	36.7
0	171469	658.1	36.5
0	171470	658.1	36.3
0	171471	658.1	36.1
0	171472	658.1	35.9
0	171473	658.1	35.7
0	171474	658.1	35.5
0	171475	658.1	35.3
0	171476	658.1	35.1
0	171477	658.1	34.9
0	171478	658.1	34.7
0	171479	658.1	34.5
0	171480	658.1	34.3
0	171481	658.1	34.1
0	171482	658.1	33.9
0	171483	658.1	33.7
0	171484	658.1	33.5
0	171485	658.1	33.3
0	171486	658.1	33.1
0	171487	658.1	32.9
0	171488	658.1	32.7
0	171489	658.1	32.5
0	171490	658.1	32.3
0	171491	658.1	32.1
0	171492	658.1	31.9
0	171493	658.1	31.7
0	171494	658.1	31.5
0	171495	658.1	31.3
0	171496	658.1	31.1
0	171497	658.1	30.9
0	171498	658.1	30.7
0	171499	658.1	30.5
0	171500	658.1	30.3
0	171501	658.1	30.1
0	171502	658.1	29.9
0	171503	658.1	29.7
0	171504	658.1	29.5
0	171505	658.1	29.3
0	171506	658.1	29.1
0	171507	658.1	28.9
0	171508	658.1	28.7
0	171509	658.1	28.5
0	171510	658.1	28.3
0	176466	661.4	31.4
0	176467	661.4	31.2
0	176468	661.4	31
0	176469	661.4	30.8
0	176470	661.4	30.6
0	176471	661.4	30.4
0	176472	661.4	30.2
0	176473	661.4	30
0	176474	661.4	29.8
0	176475	661.4	29.6
0	176476	661.4	29.4
0	176477	661.4	29.2
0	176478	661.4	29
0	176479	661.4	28.8
0	176480	661.4	28.6
0	176481	661.4	28.4
0	176482	661.4	28.2
0	176483	661.4	28
0	176484	661.4	27.8
0	176485	661.4	27.6
0	176486	661.4	27.4
0	176487	661.4	27.2
0	176488	661.4	27
0	176489	661.4	26.8
0	176490	661.4	26.6
0	176491	661.4	26.4
0	176492	661.4	26.2
0	176493	661.4	26
0	176494	661.4	25.8
0	176495	661.4	25.6
0	176496	661.4	25.4
0	176497	661.4	25.2
0	176498	661.4	25
0	176499	661.4	24.8
0	176500	661.4	24.6
0	176501	661.4	24.4
0	176502	661.4	24.2
0	176503	661.4	24
0	176504	661.4	23.8
0	176505	661.4	23.6
0	176506	661.4	23.4
0	176507	661.4	23.2
0	176508	661.4	23
0	176509	661.4	22.8
0	176510	661.4	22.6
0	176511	661.4	22.4
0	176512	661.4	22.2
0	176513	661.4	22
0	176514	661.4	21.8
0	176515	661.4	21.6
0	176516	661.4	21.4
0	176517	661.4	21.2
0	176518	661.4	21
0	176519	661.4	20.8
0	176520	661.4	20.6
0	176521	661.4	20.4
0	176522	661.4	20.2
0	176523	661.4	20
0	176524	661.4	19.8
0	176525	661.4	19.6
0	176526	661.4	19.4
0	176527	661.4	19.2
0	176528	661.4	19
0	176529	661.4	18.8
0	176530	661.4	18.6
0	176531	661.4	18.4
0	176532	661.4	18.2
0	176533	661.4	18
0	176534	661.4	17.8
0	176535	661.4	17.6
0	176536	661.4	17.4
0	176537	661.4	17.2
0	176538	661.4	17
0	176539	661.4	16.8
0	176540	661.4	16.6
0	176541	661.4	16.4
0	176542	661.4	16.2
0	176543	661.4	16
0	176544	661.4	15.8
0	176545	661.4	15.6
0	176546	661.4	15.4
0	176547	661.4	15.2
0	176548	661.4	15
0	176549	661.4	14.8
0	176550	661.4	14.6
0	176551	661.4	14.4
0	176552	661.4	14.2
0	176553	661.4	14
0	176554	661.4	13.8
0	176555	661.4	13.6
0	176556	661.4	13.4
0	176557	661.4	13.2
0	176558	661.4	13
0	176559	661.4	12.8
0	176560	661.4	12.6
0	176561	661.4	12.4
0	176562	661.4	12.2
0	176563	661.4	12
0	176564	661.4	11.8
0	176565	661.4	11.6
0	176566	661.4	11.4
0	176567	661.4	11.2
0	176568	661.4	11
0	176569	661.4	10.8
0	176570	661.4	10.6
0	176571	661.4	10.4
0	176572	661.4	10.2
0	176573	661.4	10
0	176574	661.4	9.8
0	176575	661.4	9.6
0	176576	661.4	9.4
0	176577	661.4	9.2
0	176578	661.4	9
0	176579	661.4	8.8
0	176580	661.4	8.6
0	176581	661.4	8.4
0	176582	661.4	8.2
0	176583	661.4	8
0	176584	661.4	7.8
0	176585	661.4	7.6
0	176586	661.4	7.4
0	176587	661.4	7.2
0	176588	661.4	7
0	176589	661.4	6.8
0	176590	661.4	6.6
0	176591	661.4	6.4
0	176592	661.4	6.2
0	176593	661.4	6
0	176594	661.4	5.8
0	176595	661.4	5.6
0	176596	661.4	5.4
0	176597	661.4	5.2
0	176598	661.4	5
0	176599	661.4	4.8
0	176600	661.4	4.6
0	176601	661.4	4.4
0	176602	661.4	4.2
0	176603	661.4	4
0	176604	661.4	3.8
0	176605	661.4	3.6
0	176606	661.4	3.4
0	176607	661.4	3.2
0	176608	661.4	3
0	176609	661.4	2.8
0	176610	661.4	2.6
0	176611	661.4	2.4
0	176612	661.4	2.2
0	176613	661.4	2
0	176614	661.4	1.8
0	176615	661.4	1.6
0	176616	661.4	1.4
0	177397	661.6	1.4
0	177428	661.8	1.4
0	177462	662	1.4
0	188406	712.1	51.3
0	188407	712.1	51.1
0	188408	712.1	50.9
0	188409	712.1	50.7
0	188410	712.1	50.5
0	188411	712.1	50.3
0	188412	712.1	50.1
0	188413	712.1	49.9
0	188414	712.1	49.7
0	188415	712.1	49.5
0	188416	712.1	49.3
0	188417	712.1	49.1
0	188418	712.1	48.9
0	188419	712.1	48.7
0	188420	712.1	48.5
0	188421	712.1	48.3
0	188422	712.1	48.1
0	188423	712.1	47.9
0	188424	712.1	47.7
0	188425	712.1	47.5
0	188426	712.1	47.3
0	188427	712.1	47.1
0	188428	712.1	46.9
0	188429	712.1	46.7
0	188430	712.1	46.5
0	188431	712.1	46.3
0	188432	712.1	46.1
0	188433	712.1	45.9
0	188434	712.1	45.7
0	188435	712.1	45.5
0	188436	712.1	45.3
0	188437	712.1	45.1
0	188438	712.1	44.9
0	188439	712.1	44.7
0	188440	712.1	44.5
0	188441	712.1	44.3
0	188442	712.1	44.1
0	188443	712.1	43.9
0	188444	712.1	43.7
0	188445	712.1	43.5
0	188446	712.1	43.3
0	188447	712.1	43.1
0	188448	712.1	42.9
0	188449	712.1	42.7
0	188450	712.1	42.5
0	188451	712.1	42.3
0	188452	712.1	42.1
0	188453	712.1	41.9
0	188454	712.1	41.7
0	188455	712.1	41.5
0	188456	712.1	41.3
0	188457	712.1	41.1
0	188458	712.1	40.9
0	188459	712.1	40.7
0	188460	712.1	40.5
0	188461	712.1	40.3
0	188462	712.1	40.1
0	188463	712.1	39.9
0	188464	712.1	39.7
0	188465	712.1	39.5
0	188466	712.1	39.3
0	188467	712.1	39.1
0	188468	712.1	38.9
0	188469	712.1	38.7
0	188470	712.1	38.5
0	188471	712.1	38.3
0	188472	712.1	38.1
0	188473	712.1	37.9
0	188474	712.1	37.7
0	188475	712.1	37.5
0	188476	712.1	37.3
0	188477	712.1	37.1
0	188478	712.1	36.9
0	188479	712.1	36.7
0	188480	712.1	36.5
0	188481	712.1	36.3
0	188482	712.1	36.1
0	188483	712.1	35.9
0	188484	712.1	35.7
0	188485	712.1	35.5
0	188486	712.1	35.3
0	188487	712.1	35.1
0	188488	712.1	34.9
0	188489	712.1	34.7
0	188490	712.1	34.5
0	188491	712.1	34.3
0	188492	712.1	34.1
0	188493	712.1	33.9
0	188494	712.1	33.7
0	188495	712.1	33.5
0	188496	712.1	33.3
0	188497	712.1	33.1
0	188498	712.1	32.9
0	188499	712.1	32.7
0	188500	712.1	32.5
0	188501	712.1	32.3
0	188502	712.1	32.1
0	188503	712.1	31.9
0	188504	712.1	31.7
0	188505	712.1	31.5
0	188506	712.1	31.3
0	188507	712.1	31.1
0	188508	712.1	30.9
0	188509	712.1	30.7
0	188510	712.1	30.5
0	188511	712.1	30.3
0	188512	712.1	30.1
0	188513	712.1	29.9
0	188514	712.1	29.7
0	188515	712.1	29.5
0	188516	712.1	29.3
0	188517	712.1	29.1
0	188518	712.1	28.9
0	188519	712.1	28.7
0	188520	712.1	28.5
0	188521	712.1	28.3
0	188522	712.1	28.1
0	188523	712.1	27.9
0	188524	712.1	27.7
0	188525	712.1	27.5
0	188526	712.1	27.3
0	188527	712.1	27.1
0	188528	712.1	26.9
0	188529	712.1	26.7
0	188530	712.1	26.5
0	188531	712.1	26.3
0	188532	712.1	26.1
0	188533	712.1	25.9
0	188534	712.1	25.7
0	188535	712.1	25.5
0	188536	712.1	25.3
0	188537	712.1	25.1
0	188538	712.1	24.9
0	188539	712.1	24.7
0	188540	712.1	24.5
0	188541	712.1	24.3
0	188542	712.1	24.1
0	188543	712.1	23.9
0	188544	712.1	23.7
0	188545	712.1	23.5
0	188546	712.1	23.3
0	188547	712.1	23.1
0	188548	712.1	22.9
0	188549	712.1	22.7
0	188550	712.1	22.5
0	188551	712.1	22.3
0	188552	712.1	22.1
0	188553	712.1	21.9
0	188554	712.1	21.7
0	188555	712.1	21.5
0	188556	712.1	21.3
0	188557	712.1	21.1
0	188558	712.1	20.9
0	188559	712.1	20.7
0	188560	712.1	20.5
0	188561	712.1	20.3
0	188562	712.1	20.1
0	188563	712.1	19.9
0	188564	712.1	19.7
0	188565	712.1	19.5
0	188566	712.1	19.3
0	188567	712.1	19.1
0	188568	712.1	18.9
0	188569	712.1	18.7
0	188570	712.1	18.5
0	188571	712.1	18.3
0	188572	712.1	18.1
0	188573	712.1	17.9
0	188574	712.1	17.7
0	188575	712.1	17.5
0	188576	712.1	17.3
0	188577	712.1	17.1
0	188578	712.1	16.9
0	188579	712.1	16.7
0	188580	712.1	16.5
0	188581	712.1	16.3
0	188582	712.1	16.1
0	188583	712.1	15.9
0	188584	712.1	15.7
0	188585	712.1	15.5
0	188586	712.1	15.3
0	188587	712.1	15.1
0	188588	712.1	14.9
0	188589	712.1	14.7
0	188590	712.1	14.5
0	188591	712.1	14.3
0	188592	712.1	14.1
0	188593	712.1	13.9
0	188594	712.1	13.7
0	188595	712.1	13.5
0	188596	712.1	13.3
0	188597	712.1	13.1
0	188598	712.1	12.9
0	188599	712.1	12.7
0	188600	712.1	12.5
0	188601	712.1	12.3
0	188602	712.1	12.1
0	188603	712.1	11.9
0	188604	712.1	11.7
0	188605	712.1	11.5
0	188606	712.1	11.3
0	188607	712.1	11.1
0	188608	712.1	10.9
0	188609	712.1	10.7
0	188610	712.1	10.5
0	188611	712.1	10.3
0	188612	712.1	10.1
0	188613	712.1	9.9
0	188614	712.1	9.7
0	188615	712.1	9.5
0	188616	712.1	9.3
0	188617	712.1	9.1
0	188618	712.1	8.9
0	188619	712.1	8.7
0	188620	712.1	8.5
0	188621	712.1	8.3
0	188883	713.3	9.3
0	188884	713.3	9.1
0	188885	713.3	8.9
0	188886	713.3	8.7
0	188887	713.3	8.5
0	188888	713.3	8.3
0	188889	713.3	8.1
0	188890	713.3	7.9
0	188891	713.3	7.7
0	188892	713.3	7.5
0	188893	713.3	7.3
0	188894	713.3	7.1
0	188895	713.3	6.9
0	188896	713.3	6.7
0	188897	713.3	6.5
0	188898	713.3	6.3
0	188899	713.3	6.1
0	188900	713.3	5.9
0	188901	713.3	5.7
0	188902	713.3	5.5
0	188903	713.3	5.3
0	188904	713.3	5.1
0	188905	713.3	4.9
0	188906	713.3	4.7
0	188907	713.3	4.5
0	188908	713.3	4.3
0	188909	713.3	4.1
0	188910	713.3	3.9
0	188911	713.3	3.7
0	188912	713.3	3.5
0	192096	724.1	14.1
0	192097	724.1	13.9
0	192098	724.1	13.7
0	192099	724.1	13.5
0	192100	724.1	13.3
0	192101	724.1	13.1
0	192102	724.1	12.9
0	192103	724.1	12.7
0	192104	724.1	12.5
0	192105	724.1	12.3
0	192106	724.1	12.1
0	192107	724.1	11.9
0	192108	724.1	11.7
0	192109	724.1	11.5
0	192110	724.1	11.3
0	192111	724.1	11.1
0	192112	724.1	10.9
0	192113	724.1	10.7
0	192114	724.1	10.5
0	192115	724.1	10.3
0	192116	724.1	10.1
0	192117	724.1	9.9
0	192118	724.1	9.7
0	192119	724.1	9.5
0	192120	724.1	9.3
0	192121	724.1	9.1
0	192122	724.1	8.9
0	192123	724.1	8.7
0	192124	724.1	8.5
0	192125	724.1	8.3
0	192126	724.1	8.1
0	192127	724.1	7.9
0	192128	724.1	7.7
0	192129	724.1	7.5
0	192130	724.1	7.3
0	192131	724.1	7.1
0	192132	724.1	6.9
0	192133	724.1	6.7
0	192134	724.1	6.5
0	192135	724.1	6.3
0	192136	724.1	6.1
0	192137	724.1	5.9
0	192138	724.1	5.7
0	192139	724.1	5.5
0	192140	724.1	5.3
0	192141	724.1	5.1
0	192142	724.1	4.9
0	192143	724.1	4.7
0	192144	724.1	4.5
0	199968	777.1	56.1
0	199969	777.1	55.9
0	199970	777.1	55.7
0	199971	777.1	55.5
0	199972	777.1	55.3
0	202589	781.2	61.4
0	202590	781.2	61.2
0	202591	781.2	61
0	202592	781.2	60.8
0	202593	781.2	60.6
0	202594	781.2	60.4
0	202595	781.2	59.2
0	202596	781.2	59
0	202597	781.2	58.8
0	202598	781.2	58.6
0	202599	781.2	58.4
0	202600	781.2	58.2
0	202601	781.2	58
0	202602	781.2	57.8
0	202603	781.2	57.6
0	202604	781.2	57.4
0	202605	781.2	57.2
0	202606	781.2	57
0	202607	781.2	56.8
0	202608	781.2	56.6
0	202609	781.2	56.4
0	202610	781.2	56.2
0	202611	781.2	56
0	202612	781.2	55.8
0	202613	781.2	55.6
0	202614	781.2	55.4
0	202615	781.2	55.2
0	202616	781.2	55
0	202617	781.2	54.8
0	202618	781.2	54.6
0	202619	781.2	54.4
0	202620	781.2	54.2
0	202621	781.2	54
0	202622	781.2	53.8
0	202623	781.2	53.6
0	202624	781.2	53.4
0	202625	781.2	53.2
0	202626	781.2	53
0	202627	781.2	52.8
0	202628	781.2	52.6
0	202629	781.2	52.4
0	202630	781.2	52.2
0	202631	781.2	52
0	202632	781.2	51.8
0	202633	781.2	51.6
0	202634	781.2	51.4
0	202635	781.2	51.2
0	202636	781.2	51
0	202637	781.2	50.8
0	202638	781.2	50.6
0	202639	781.2	50.4
0	202640	781.2	50.2
0	202641	781.2	50
0	202642	781.2	49.8
0	202643	781.2	49.6
0	202644	781.2	49.4
0	202645	781.2	49.2
0	202646	781.2	49
0	202647	781.2	48.8
0	202648	781.2	48.6
0	202649	781.2	48.4
0	202650	781.2	48.2
0	202651	781.2	48
0	202652	781.2	47.8
0	202653	781.2	47.6
0	202654	781.2	47.4
0	202655	781.2	47.2
0	202656	781.2	47
0	202657	781.2	46.8
0	202658	781.2	46.6
0	202659	781.2	46.4
0	202660	781.2	46.2
0	202661	781.2	46
0	202662	781.2	45.8
0	202663	781.2	45.6
0	202664	781.2	45.4
0	202665	781.2	45.2
0	202666	781.2	45
0	202667	781.2	44.8
0	202668	781.2	44.6
0	202669	781.2	44.4
0	202670	781.2	44.2
0	202671	781.2	44
0	202672	781.2	43.8
0	202673	781.2	43.6
0	202674	781.2	43.4
0	202675	781.2	43.2
0	202676	781.2	43
0	202677	781.2	42.8
0	202678	781.2	42.6
0	202679	781.2	42.4
0	202680	781.2	42.2
0	202681	781.2	42
0	202682	781.2	41.8
0	202683	781.2	41.6
0	202684	781.2	41.4
0	202685	781.2	41.2
0	202686	781.2	41
0	202687	781.2	40.8
0	202688	781.2	40.6
0	202689	781.2	40.4
0	202690	781.2	40.2
0	202691	781.2	40
0	202692	781.2	39.8
0	202693	781.2	39.6
0	202694	781.2	39.4
0	202695	781.2	39.2
0	202696	781.2	39
0	202697	781.2	38.8
0	202698	781.2	38.6
0	202699	781.2	38.4
0	202700	781.2	38.2
0	202701	781.2	38
0	202702	781.2	37.8
0	202703	781.2	37.6
0	202704	781.2	37.4
0	202705	781.2	37.2
0	202706	781.2	37
0	202707	781.2	36.8
0	202708	781.2	36.6
0	202709	781.2	36.4
0	202710	781.2	36.2
0	202711	781.2	36
0	202712	781.2	35.8
0	202713	781.2	35.6
0	202714	781.2	35.4
0	202715	781.2	35.2
0	202716	781.2	35
0	202717	781.2	34.8
0	202718	781.2	34.6
0	202719	781.2	34.4
0	202720	781.2	34.2
0	202721	781.2	34
0	202722	781.2	33.8
0	202723	781.2	33.6
0	202724	781.2	33.4
0	202725	781.2	33.2
0	202726	781.2	33
0	202727	781.2	32.8
0	202728	781.2	32.6
0	202729	781.2	32.4
0	202730	781.2	32.2
0	202731	781.2	32
0	202732	781.2	31.8
0	202733	781.2	31.6
0	202734	781.2	31.4
0	202735	781.2	31.2
0	202736	781.2	31
0	202737	781.2	30.8
0	202738	781.2	30.6
0	202739	781.2	30.4
0	202740	781.2	30.2
0	202741	781.2	30
0	202742	781.2	29.8
0	202743	781.2	29.6
0	202744	781.2	29.4
0	202745	781.2	29.2
0	202746	781.2	29
0	202747	781.2	28.8
0	202748	781.2	28.6
0	202749	781.2	28.4
0	202750	781.2	28.2
0	202751	781.2	28
0	202752	781.2	27.8
0	202753	781.2	27.6
0	202754	781.2	27.4
0	202755	781.2	27.2
0	202756	781.2	27
0	202757	781.2	26.8
0	202758	781.2	26.6
0	202759	781.2	26.4
0	202760	781.2	26.2
0	202761	781.2	26
0	202762	781.2	25.8
0	202763	781.2	25.6
0	202764	781.2	25.4
0	202765	781.2	25.2
0	202766	781.2	25
0	202767	781.2	24.8
0	202768	781.2	24.6
0	202769	781.2	24.4
0	202770	781.2	24.2
0	202771	781.2	24
0	202772	781.2	23.8
0	202773	781.2	23.6
0	202774	781.2	23.4
0	202775	781.2	23.2
0	202776	781.2	23
0	202777	781.2	22.8
0	202778	781.2	22.6
0	202779	781.2	22.4
0	202780	781.2	22.2
0	202781	781.2	22
0	202782	781.2	21.8
0	202783	781.2	21.6
0	202784	781.2	21.4
0	202785	781.2	21.2
0	202786	781.2	21
0	202787	781.2	20.8
0	202788	781.2	20.6
0	202789	781.2	20.4
0	202790	781.2	20.2
0	202791	781.2	20
0	202792	781.2	19.8
0	202793	781.2	19.6
0	202794	781.2	19.4
0	202795	781.2	19.2
0	202796	781.2	19
0	202797	781.2	18.8
0	202798	781.2	18.6
0	202799	781.2	18.4
0	202800	781.2	18.2
0	202801	781.2	18
0	202802	781.2	17.8
0	202803	781.2	17.6
0	202804	781.2	17.4
0	202805	781.2	17.2
0	202806	781.2	17
0	202807	781.2	16.8
0	202808	781.2	16.6
0	202809	781.2	16.4
0	202810	781.2	16.2
0	202811	781.2	16
0	202812	781.2	15.8
0	202813	781.2	15.6
0	202814	781.2	15.4
0	202815	781.2	15.2
0	202816	781.2	15
0	202817	781.2	14.8
0	202818	781.2	14.6
0	202819	781.2	14.4
0	202820	781.2	14.2
0	202821	781.2	14
0	202822	781.2	13.8
0	202823	781.2	13.6
0	202824	781.2	13.4
0	202825	781.2	13.2
0	202826	781.2	13
0	202827	781.2	12.8
0	202828	781.2	12.6
0	202829	781.2	12.4
0	202830	781.2	12.2
0	202831	781.2	12
0	202832	781.2	11.8
0	202833	781.2	11.6
0	202834	781.2	11.4
0	202835	781.2	11.2
0	202836	781.2	11
0	202837	781.2	10.8
0	202838	781.2	10.6
0	202839	781.2	10.4
0	202840	781.2	10.2
0	202841	781.2	10
0	202842	781.2	9.8
0	202843	781.2	9.6
0	202844	781.2	9.4
0	210523	805.1	33.1
0	210524	805.1	32.9
0	210525	805.1	32.7
0	210526	805.1	32.5
0	210527	805.1	32.3
0	210528	805.1	32.1
0	210529	805.1	31.9
0	210530	805.1	31.7
0	210531	805.1	31.5
0	210532	805.1	31.3
0	210533	805.1	31.1
0	210534	805.1	30.9
0	210535	805.1	30.7
0	210536	805.1	30.5
0	210537	805.1	30.3
0	210538	805.1	30.1
0	210539	805.1	29.9
0	210540	805.1	29.7
0	210541	805.1	29.5
0	210542	805.1	29.3
0	210543	805.1	29.1
0	210544	805.1	28.9
0	210545	805.1	28.7
0	210546	805.1	28.5
0	210547	805.1	28.3
0	210548	805.1	28.1
0	210549	805.1	27.9
0	210550	805.1	27.7
0	210551	805.1	27.5
0	210552	805.1	27.3
0	210553	805.1	27.1
0	210554	805.1	26.9
0	210555	805.1	26.7
0	210556	805.1	26.5
0	210557	805.1	26.3
0	210558	805.1	26.1
0	210559	805.1	25.9
0	210560	805.1	25.7
0	210561	805.1	25.5
0	210562	805.1	25.3
0	210563	805.1	25.1
0	210564	805.1	24.9
0	210565	805.1	24.7
0	210566	805.1	24.5
0	210567	805.1	24.3
0	210568	805.1	24.1
0	210569	805.1	23.9
0	210570	805.1	23.7
0	210571	805.1	23.5
0	210572	805.1	23.3
0	210573	805.1	23.1
0	210574	805.1	22.9
0	210575	805.1	22.7
0	210576	805.1	22.5
0	210577	805.1	22.3
0	210578	805.1	22.1
0	210579	805.1	21.9
0	210580	805.1	21.7
0	210581	805.1	21.5
0	210582	805.1	21.3
0	210583	805.1	21.1
0	210584	805.1	20.9
0	210585	805.1	20.7
0	210586	805.1	20.5
0	210587	805.1	20.3
0	210588	805.1	20.1
0	210589	805.1	19.9
0	210590	805.1	19.7
0	210591	805.1	19.5
0	210592	805.1	19.3
0	210593	805.1	19.1
0	210594	805.1	18.9
0	210595	805.1	18.7
0	210596	805.1	18.5
0	210597	805.1	18.3
0	210598	805.1	18.1
0	210599	805.1	17.9
0	210600	805.1	17.7
0	210601	805.1	17.5
0	210602	805.1	17.3
0	210603	805.1	17.1
0	210604	805.1	16.9
0	210605	805.1	16.7
0	210606	805.1	16.5
0	210607	805.1	16.3
0	210608	805.1	16.1
0	210609	805.1	15.9
0	210610	805.1	15.7
0	210611	805.1	15.5
0	210612	805.1	15.3
0	210613	805.1	15.1
0	210614	805.1	14.9
0	210615	805.1	14.7
0	210616	805.1	14.5
0	210617	805.1	14.3
0	210618	805.1	14.1
0	210619	805.1	13.9
0	210620	805.1	13.7
0	210621	805.1	13.5
0	210622	805.1	13.3
0	210623	805.1	13.1
0	210624	805.1	12.9
0	210625	805.1	12.7
0	210626	805.1	12.5
0	210627	805.1	12.3
0	210628	805.1	12.1
0	210629	805.1	11.9
0	210630	805.1	11.7
0	210631	805.1	11.5
0	210632	805.1	11.3
0	210633	805.1	11.1
0	210634	805.1	10.9
0	210635	805.1	10.7
0	210636	805.1	10.5
0	210637	805.1	10.3
0	210638	805.1	10.1
0	210639	805.1	9.9
0	210640	805.1	9.7
0	210641	805.1	9.5
0	210642	805.1	9.3
0	210643	805.1	9.1
0	210644	805.1	8.9
0	210645	805.1	8.7
0	210646	805.1	8.5
0	210647	805.1	8.3
0	210648	805.1	8.1
0	210649	805.1	7.9
0	210650	805.1	7.7
0	210651	805.1	7.5
0	210652	805.1	7.3
0	219460	844.1	16.1
0	219461	844.1	15.9
0	219462	844.1	15.7
0	219463	844.1	15.5
0	219464	844.1	15.3
0	219465	844.1	15.1
0	219466	844.1	14.9
0	219467	844.1	14.7
0	219468	844.1	14.5
0	219469	844.1	14.3
0	219470	844.1	14.1
0	219471	844.1	13.9
0	219472	844.1	13.7
0	219473	844.1	13.5
0	219474	844.1	13.3
0	219475	844.1	13.1
0	219476	844.1	12.9
0	219477	844.1	12.7
0	219478	844.1	12.5
0	219479	844.1	12.3
0	219480	844.1	12.1
0	219481	844.1	11.9
0	219482	844.1	11.7
0	219483	844.1	11.5
0	219484	844.1	11.3
0	219485	844.1	11.1
0	219486	844.1	10.9
0	219487	844.1	10.7
0	219488	844.1	10.5
0	219489	844.1	10.3
0	219490	844.1	10.1
0	219491	844.1	9.9
0	219492	844.1	9.7
0	219493	844.1	9.5
0	219494	844.1	46.1
0	219495	844.1	45.9
0	219496	844.1	45.7
0	219497	844.1	45.5
0	219498	844.1	45.3
0	219499	844.1	45.1
0	219500	844.1	44.9
0	219501	844.1	44.7
0	219502	844.1	44.5
0	219503	844.1	44.3
0	219504	844.1	44.1
0	219505	844.1	43.9
0	219506	844.1	43.7
0	219507	844.1	43.5
0	219508	844.1	43.3
0	219509	844.1	43.1
0	219510	844.1	42.9
0	219511	844.1	42.7
0	219512	844.1	42.5
0	219513	844.1	42.3
0	219514	844.1	42.1
0	219515	844.1	41.9
0	219516	844.1	41.7
0	219517	844.1	41.5
0	219518	844.1	41.3
0	219519	844.1	41.1
0	219520	844.1	40.9
0	219521	844.1	40.7
0	219522	844.1	40.5
0	219523	844.1	40.3
0	219524	844.1	40.1
0	219525	844.1	39.9
0	219526	844.1	39.7
0	219527	844.1	39.5
0	219528	844.1	39.3
0	219529	844.1	39.1
0	219530	844.1	38.9
0	219531	844.1	38.7
0	219532	844.1	38.5
0	219533	844.1	38.3
0	219534	844.1	38.1
0	219535	844.1	37.9
0	219536	844.1	37.7
0	219537	844.1	37.5
0	219538	844.1	37.3
0	219539	844.1	37.1
0	219540	844.1	36.9
0	219541	844.1	36.7
0	219542	844.1	36.5
0	219543	844.1	36.3
0	219544	844.1	36.1
0	219545	844.1	35.9
0	219546	844.1	35.7
0	219547	844.1	35.5
0	219548	844.1	35.3
0	219549	844.1	35.1
0	219550	844.1	34.9
0	219551	844.1	34.7
0	219552	844.1	34.5
0	219553	844.1	34.3
0	219554	844.1	34.1
0	219555	844.1	33.9
0	219556	844.1	33.7
0	219557	844.1	33.5
0	219558	844.1	33.3
0	219559	844.1	33.1
0	219560	844.1	32.9
0	219561	844.1	32.7
0	219562	844.1	32.5
0	219563	844.1	32.3
0	219564	844.1	32.1
0	219565	844.1	31.9
0	219566	844.1	31.7
0	219567	844.1	31.5
0	219568	844.1	31.3
0	219569	844.1	31.1
0	219570	844.1	30.9
0	219571	844.1	30.7
0	219572	844.1	30.5
0	219573	844.1	30.3
0	219574	844.1	30.1
0	219575	844.1	29.9
0	219576	844.1	29.7
0	219577	844.1	29.5
0	219578	844.1	29.3
0	219579	844.1	29.1
0	219580	844.1	28.9
0	219581	844.1	28.7
0	219582	844.1	28.5
0	219583	844.1	28.3
0	219584	844.1	28.1
0	219585	844.1	27.9
0	219586	844.1	27.7
0	219587	844.1	27.5
0	219588	844.1	27.3
0	219589	844.1	27.1
0	219590	844.1	26.9
0	219591	844.1	26.7
0	219592	844.1	26.5
0	219593	844.1	26.3
0	219594	844.1	26.1
0	219595	844.1	25.9
0	219596	844.1	25.7
0	219597	844.1	25.5
0	219598	844.1	25.3
0	219599	844.1	25.1
0	219600	844.1	24.9
0	219601	844.1	24.7
0	219602	844.1	24.5
0	219603	844.1	24.3
0	219604	844.1	24.1
0	219605	844.1	23.9
0	219606	844.1	23.7
0	219607	844.1	23.5
0	219608	844.1	23.3
0	219609	844.1	23.1
0	219610	844.1	22.9
0	219611	844.1	22.7
0	219612	844.1	22.5
0	219613	844.1	22.3
0	219614	844.1	22.1
0	219615	844.1	21.9
0	219616	844.1	21.7
0	219617	844.1	21.5
0	219618	844.1	21.3
0	219619	844.1	21.1
0	219620	844.1	20.9
0	219621	844.1	20.7
0	219622	844.1	20.5
0	219623	844.1	20.3
0	219624	844.1	20.1
0	219625	844.1	19.9
0	219626	844.1	19.7
0	219627	844.1	19.5
0	219628	844.1	19.3
0	219629	844.1	19.1
0	219630	844.1	18.9
0	219631	844.1	18.7
0	219632	844.1	18.5
0	219633	844.1	18.3
0	219634	844.1	18.1
0	219635	844.1	17.9
0	219636	844.1	17.7
0	219637	844.1	17.5
0	219638	844.1	17.3
0	219639	844.1	17.1
0	219640	844.1	16.9
0	219641	844.1	16.7
0	219642	844.1	16.5
0	219643	844.1	16.3
0	232887	880.3	45.3
0	232888	880.3	45.1
0	232889	880.3	44.9
0	232890	880.3	44.7
0	232891	880.3	44.5
0	232892	880.3	44.3
0	232893	880.3	44.1
0	232894	880.3	43.9
0	232895	880.3	43.7
0	232896	880.3	43.5
0	232897	880.3	43.3
0	232898	880.3	43.1
0	232899	880.3	42.9
0	232900	880.3	42.7
0	232901	880.3	42.5
0	232902	880.3	42.3
0	232903	880.3	42.1
0	232904	880.3	41.9
0	232905	880.3	41.7
0	232906	880.3	41.5
0	232907	880.3	41.3
0	232908	880.3	41.1
0	232909	880.3	40.9
0	232910	880.3	40.7
0	232911	880.3	40.5
0	232912	880.3	40.3
0	232913	880.3	40.1
0	232914	880.3	39.9
0	232915	880.3	39.7
0	232916	880.3	39.5
0	232917	880.3	39.3
0	232918	880.3	39.1
0	232919	880.3	38.9
0	232920	880.3	38.7
0	232921	880.3	38.5
0	232922	880.3	38.3
0	232923	880.3	38.1
0	232924	880.3	37.9
0	232925	880.3	37.7
0	232926	880.3	37.5
0	232927	880.3	37.3
0	232928	880.3	37.1
0	232929	880.3	36.9
0	232930	880.3	36.7
0	232931	880.3	36.5
0	232932	880.3	36.3
0	232933	880.3	36.1
0	232934	880.3	35.9
0	232935	880.3	35.7
0	232936	880.3	35.5
0	232937	880.3	45.5
0	232938	880.3	35.3
0	232939	880.3	35.1
0	232940	880.3	34.9
0	232941	880.3	34.7
0	232942	880.3	34.5
0	232943	880.3	34.3
0	232944	880.3	34.1
0	232945	880.3	33.9
0	232946	880.3	33.7
0	232947	880.3	33.5
0	232948	880.3	33.3
0	232949	880.3	33.1
0	232950	880.3	32.9
0	232951	880.3	32.7
0	232952	880.3	32.5
0	232953	880.3	32.3
0	232954	880.3	32.1
0	232955	880.3	31.9
0	232956	880.3	31.7
0	232957	880.3	31.5
0	232958	880.3	31.3
0	232959	880.3	31.1
0	232960	880.3	30.9
0	232961	880.3	30.7
0	232962	880.3	30.5
0	232963	880.3	30.3
0	232964	880.3	30.1
0	232965	880.3	29.9
0	232966	880.3	29.7
0	232967	880.3	29.5
0	232968	880.3	29.3
0	232969	880.3	29.1
0	232970	880.3	28.9
0	232971	880.3	28.7
0	232972	880.3	28.5
0	232973	880.3	28.3
0	232974	880.3	28.1
0	232975	880.3	27.9
0	232976	880.3	27.7
0	232977	880.3	27.5
0	232978	880.3	27.3
0	232979	880.3	27.1
0	232980	880.3	26.9
0	232981	880.3	26.7
0	232982	880.3	26.5
0	232983	880.3	26.3
0	232984	880.3	26.1
0	232985	880.3	25.9
0	232986	880.3	25.7
0	232987	880.3	25.5
0	232988	880.3	25.3
0	232989	880.3	25.1
0	232990	880.3	24.9
0	232991	880.3	24.7
0	232992	880.3	24.5
0	232993	880.3	24.3
0	232994	880.3	24.1
0	232995	880.3	23.9
0	232996	880.3	23.7
0	232997	880.3	23.5
0	232998	880.3	23.3
0	232999	880.3	23.1
0	233000	880.3	22.9
0	233001	880.3	22.7
0	233002	880.3	22.5
0	233003	880.3	22.3
0	233004	880.3	22.1
0	233005	880.3	21.9
0	233006	880.3	21.7
0	233007	880.3	21.5
0	233008	880.3	21.3
0	233009	880.3	21.1
0	233010	880.3	20.9
0	233011	880.3	20.7
0	233012	880.3	20.5
0	233013	880.3	20.3
0	233014	880.3	20.1
0	233015	880.3	19.9
0	233016	880.3	19.7
0	233017	880.3	19.5
0	233018	880.3	19.3
0	233019	880.3	19.1
0	233020	880.3	18.9
0	233021	880.3	18.7
0	233022	880.3	18.5
0	233023	880.3	18.3
0	233024	880.3	18.1
0	233025	880.3	17.9
0	233026	880.3	17.7
0	233027	880.3	17.5
0	233028	880.3	17.3
0	233029	880.3	17.1
0	233030	880.3	16.9
0	233031	880.3	16.7
0	233032	880.3	16.5
0	233033	880.3	16.3
0	233034	880.3	16.1
0	233035	880.3	15.9
0	233036	880.3	15.7
0	233037	880.3	15.5
0	233038	880.3	15.3
0	233039	880.3	15.1
0	233040	880.3	14.9
0	233041	880.3	14.7
0	233042	880.3	14.5
0	233043	880.3	14.3
0	233044	880.3	14.1
0	233045	880.3	13.9
0	233046	880.3	13.7
0	233047	880.3	13.5
0	233048	880.3	13.3
0	233049	880.3	13.1
0	233050	880.3	12.9
0	233051	880.3	12.7
0	233052	880.3	12.5
0	233053	880.3	12.3
0	233054	880.3	12.1
0	233055	880.3	11.9
0	233056	880.3	11.7
0	233057	880.3	11.5
0	233058	880.3	11.3
0	233059	880.3	11.1
0	233060	880.3	10.9
0	233061	880.3	10.7
0	233062	880.3	10.5
0	233063	880.3	10.3
0	233064	880.3	10.1
0	233065	880.3	9.9
0	233066	880.3	9.7
0	233067	880.3	9.5
0	233068	880.3	9.3
0	233069	880.3	9.1
0	233070	880.3	8.9
0	233071	880.3	8.7
0	233072	880.3	8.5
0	233073	880.3	8.3
0	233074	880.3	8.1
0	233075	880.3	7.9
0	233076	880.3	7.7
0	233077	880.3	7.5
0	233078	880.3	7.3
0	233079	880.3	7.1
0	233080	880.3	6.9
0	233081	880.3	6.7
0	233082	880.3	6.5
0	233083	880.3	6.3
0	233084	880.3	6.1
0	233085	880.3	5.9
0	233086	880.3	5.7
0	233087	880.3	5.5
0	233088	880.3	5.3
0	233089	880.3	5.1
0	233090	880.3	4.9
0	233091	880.3	4.7
0	233092	880.3	4.5
0	233236	880.4	4.4
0	233237	880.4	4.2
0	233238	880.4	4
0	233239	880.4	3.8
0	233240	880.4	3.6
0	233241	880.4	3.4
0	233242	880.4	3.2
0	233243	880.4	3
0	233244	880.4	2.8
0	233245	880.4	2.6
0	233246	880.4	2.4
0	233247	880.4	2.2
0	233248	880.4	2
0	233249	880.4	1.8
0	233250	880.4	1.6
0	233251	880.4	1.4
0	233283	880.6	1.4
0	233315	880.8	1.4
0	233349	881	1.4
0	233634	881.2	1.4
0	234725	881.4	1.4
0	234804	881.6	1.4
0	234838	881.8	1.4
0	234871	882	1.4
0	234923	882.2	1.4
0	234946	882.4	1.4
0	235413	882.6	1.4
0	235438	882.8	1.4
0	235466	883	1.4
0	241386	899.1	16.1
0	241387	899.1	15.9
0	241388	899.1	15.7
0	241389	899.1	15.5
0	241390	899.1	15.3
0	241391	899.1	15.1
0	241392	899.1	14.9
0	241393	899.1	14.7
0	241394	899.1	14.5
0	241395	899.1	14.3
0	241396	899.1	14.1
0	241397	899.1	13.9
0	241398	899.1	13.7
0	241399	899.1	13.5
0	241400	899.1	13.3
0	241401	899.1	13.1
0	241402	899.1	12.9
0	241403	899.1	12.7
0	241404	899.1	12.5
0	241405	899.1	12.3
0	254764	958.1	76.3
0	254765	958.1	71.1
0	254766	958.1	76.1
0	254767	958.1	75.9
0	254768	958.1	75.7
0	254769	958.1	75.5
0	254770	958.1	75.3
0	254771	958.1	70.9
0	254772	958.1	70.7
0	254773	958.1	70.5
0	254774	958.1	70.3
0	254775	958.1	70.1
0	254776	958.1	69.9
0	254777	958.1	69.7
0	254778	958.1	69.5
0	254779	958.1	69.3
0	254780	958.1	69.1
0	254781	958.1	68.9
0	254782	958.1	68.7
0	254783	958.1	68.5
0	254784	958.1	68.3
0	254785	958.1	68.1
0	254786	958.1	67.9
0	254787	958.1	67.7
0	254788	958.1	67.5
0	254789	958.1	67.3
0	254790	958.1	67.1
0	254791	958.1	66.9
0	254792	958.1	66.7
0	254793	958.1	66.5
0	254794	958.1	66.3
0	254795	958.1	66.1
0	254796	958.1	65.9
0	254797	958.1	65.7
0	254798	958.1	65.5
0	254799	958.1	65.3
0	254800	958.1	65.1
0	254801	958.1	64.9
0	254802	958.1	64.7
0	254803	958.1	64.5
0	254804	958.1	64.3
0	254805	958.1	64.1
0	254806	958.1	63.9
0	254807	958.1	63.7
0	254808	958.1	63.5
0	254809	958.1	63.3
0	254810	958.1	63.1
0	254811	958.1	62.9
0	254812	958.1	62.7
0	254813	958.1	62.5
0	254814	958.1	62.3
0	254815	958.1	62.1
0	254816	958.1	61.9
0	254817	958.1	61.7
0	254818	958.1	61.5
0	254819	958.1	61.3
0	254820	958.1	61.1
0	254821	958.1	60.9
0	254822	958.1	60.7
0	254823	958.1	60.5
0	254824	958.1	60.3
0	254825	958.1	60.1
0	254826	958.1	59.9
0	254827	958.1	59.7
0	254828	958.1	59.5
0	254829	958.1	59.3
0	254830	958.1	59.1
0	254831	958.1	58.9
0	254832	958.1	58.7
0	254833	958.1	58.5
0	254834	958.1	58.3
0	254835	958.1	58.1
0	254836	958.1	57.9
0	254837	958.1	57.7
0	254838	958.1	57.5
0	254839	958.1	57.3
0	254840	958.1	57.1
0	254841	958.1	56.9
0	254842	958.1	56.7
0	254843	958.1	56.5
0	254844	958.1	56.3
0	254845	958.1	56.1
0	254846	958.1	55.9
0	254847	958.1	55.7
0	254848	958.1	55.5
0	254849	958.1	55.3
0	254850	958.1	55.1
0	254851	958.1	54.9
0	254852	958.1	54.7
0	254853	958.1	54.5
0	254854	958.1	54.3
0	254855	958.1	54.1
0	254856	958.1	53.9
0	254857	958.1	53.7
0	254858	958.1	53.5
0	254859	958.1	53.3
0	254860	958.1	53.1
0	254861	958.1	52.9
0	254862	958.1	52.7
0	254863	958.1	52.5
0	254864	958.1	52.3
0	254865	958.1	52.1
0	254866	958.1	51.9
0	254867	958.1	51.7
0	254868	958.1	51.5
0	254869	958.1	51.3
0	254870	958.1	51.1
0	254871	958.1	50.9
0	254872	958.1	50.7
0	254873	958.1	50.5
0	254874	958.1	50.3
0	254875	958.1	50.1
0	254876	958.1	49.9
0	254877	958.1	49.7
0	254878	958.1	49.5
0	254879	958.1	49.3
0	254880	958.1	49.1
0	254881	958.1	48.9
0	254882	958.1	48.7
0	254883	958.1	48.5
0	254884	958.1	48.3
0	254885	958.1	48.1
0	254886	958.1	47.9
0	254887	958.1	47.7
0	254888	958.1	47.5
0	254889	958.1	47.3
0	254890	958.1	47.1
0	254891	958.1	46.9
0	254892	958.1	46.7
0	254893	958.1	46.5
0	254894	958.1	46.3
0	254895	958.1	46.1
0	254896	958.1	45.9
0	254897	958.1	45.7
0	254898	958.1	45.5
0	254899	958.1	45.3
0	254900	958.1	45.1
0	254901	958.1	44.9
0	254902	958.1	44.7
0	254903	958.1	44.5
0	254904	958.1	44.3
0	254905	958.1	44.1
0	254906	958.1	43.9
0	254907	958.1	43.7
0	254908	958.1	43.5
0	254909	958.1	43.3
0	254910	958.1	43.1
0	254911	958.1	42.9
0	254912	958.1	42.7
0	254913	958.1	42.5
0	254914	958.1	42.3
0	254915	958.1	42.1
0	254916	958.1	41.9
0	254917	958.1	41.7
0	254918	958.1	41.5
0	254919	958.1	41.3
0	254920	958.1	41.1
0	254921	958.1	40.9
0	254922	958.1	40.7
0	254923	958.1	40.5
0	254924	958.1	40.3
0	254925	958.1	40.1
0	254926	958.1	39.9
0	254927	958.1	39.7
0	254928	958.1	39.5
0	254929	958.1	39.3
0	254930	958.1	39.1
0	254931	958.1	38.9
0	254932	958.1	38.7
0	254933	958.1	38.5
0	254934	958.1	38.3
0	254935	958.1	38.1
0	254936	958.1	37.9
0	254937	958.1	37.7
0	254938	958.1	37.5
0	254939	958.1	37.3
0	254940	958.1	37.1
0	254941	958.1	36.9
0	254942	958.1	36.7
0	254943	958.1	36.5
0	254944	958.1	36.3
0	254945	958.1	36.1
0	254946	958.1	35.9
0	254947	958.1	35.7
0	254948	958.1	35.5
0	254949	958.1	35.3
0	254950	958.1	35.1
0	254951	958.1	34.9
0	254952	958.1	34.7
0	254953	958.1	34.5
0	254954	958.1	34.3
0	254955	958.1	34.1
0	254956	958.1	33.9
0	254957	958.1	33.7
0	254958	958.1	33.5
0	254959	958.1	33.3
0	254960	958.1	33.1
0	254961	958.1	32.9
0	254962	958.1	32.7
0	254963	958.1	32.5
0	254964	958.1	32.3
0	254965	958.1	32.1
0	254966	958.1	31.9
0	254967	958.1	31.7
0	254968	958.1	31.5
0	254969	958.1	31.3
0	254970	958.1	31.1
0	254971	958.1	30.9
0	254972	958.1	30.7
0	254973	958.1	30.5
0	254974	958.1	30.3
0	254975	958.1	30.1
0	254976	958.1	29.9
0	254977	958.1	29.7
0	254978	958.1	29.5
0	254979	958.1	29.3
0	254980	958.1	29.1
0	254981	958.1	28.9
0	254982	958.1	28.7
0	254983	958.1	28.5
0	254984	958.1	28.3
0	254985	958.1	28.1
0	254986	958.1	27.9
0	254987	958.1	27.7
0	254988	958.1	27.5
0	254989	958.1	27.3
0	254990	958.1	27.1
0	254991	958.1	26.9
0	254992	958.1	26.7
0	254993	958.1	26.5
0	254994	958.1	26.3
0	254995	958.1	26.1
0	254996	958.1	25.9
0	254997	958.1	25.7
0	254998	958.1	25.5
0	254999	958.1	25.3
0	255000	958.1	25.1
0	255001	958.1	24.9
0	255002	958.1	24.7
0	255003	958.1	24.5
0	255004	958.1	24.3
0	255005	958.1	24.1
0	255006	958.1	23.9
0	255007	958.1	23.7
0	255008	958.1	23.5
0	255009	958.1	23.3
0	255010	958.1	23.1
0	255011	958.1	22.9
0	255012	958.1	22.7
0	255013	958.1	22.5
0	255014	958.1	22.3
0	255015	958.1	22.1
0	255016	958.1	21.9
0	255017	958.1	21.7
0	255018	958.1	21.5
0	255019	958.1	21.3
0	255020	958.1	21.1
0	255021	958.1	20.9
0	255022	958.1	20.7
0	255023	958.1	20.5
0	255024	958.1	20.3
0	255025	958.1	20.1
0	255026	958.1	19.9
0	255027	958.1	19.7
0	255028	958.1	19.5
0	255029	958.1	19.3
0	255030	958.1	19.1
0	255031	958.1	18.9
0	255032	958.1	18.7
0	255033	958.1	18.5
0	255034	958.1	18.3
0	255035	958.1	18.1
0	255036	958.1	17.9
0	255037	958.1	17.7
0	255038	958.1	17.5
0	255039	958.1	17.3
0	255040	958.1	17.1
0	255041	958.1	16.9
0	255042	958.1	16.7
0	255043	958.1	16.5
0	255044	958.1	16.3
0	262123	971.2	29.2
0	262124	971.2	29
0	262125	971.2	28.8
0	262126	971.2	28.6
0	262127	971.2	28.4
0	262128	971.2	28.2
0	262129	971.2	28
0	262130	971.2	27.8
0	262131	971.2	27.6
0	262132	971.2	27.4
0	262133	971.2	27.2
0	262134	971.2	27
0	262135	971.2	26.8
0	262136	971.2	26.6
0	262137	971.2	26.4
0	262138	971.2	26.2
0	262139	971.2	26
0	262140	971.2	25.8
0	262141	971.2	25.6
0	262142	971.2	25.4
0	262143	971.2	25.2
0	262144	971.2	25
0	262145	971.2	24.8
0	262146	971.2	24.6
0	262147	971.2	24.4
0	262148	971.2	24.2
0	262149	971.2	24
0	262150	971.2	23.8
0	262151	971.2	23.6
0	262152	971.2	23.4
0	262153	971.2	23.2
0	262154	971.2	23
0	262155	971.2	22.8
0	262156	971.2	22.6
0	262157	971.2	22.4
0	262158	971.2	22.2
0	262159	971.2	22
0	262160	971.2	21.8
0	262161	971.2	21.6
0	262162	971.2	21.4
0	262163	971.2	21.2
0	262164	971.2	21
0	262165	971.2	20.8
0	262166	971.2	20.6
0	262167	971.2	20.4
0	262168	971.2	20.2
0	262169	971.2	20
0	262170	971.2	19.8
0	262171	971.2	19.6
0	262172	971.2	19.4
0	262173	971.2	19.2
0	262174	971.2	19
0	262175	971.2	18.8
0	262176	971.2	18.6
0	262177	971.2	18.4
0	262178	971.2	18.2
0	262179	971.2	18
0	262180	971.2	17.8
0	262181	971.2	17.6
0	262182	971.2	17.4
0	262183	971.2	17.2
0	262184	971.2	17
0	262185	971.2	16.8
0	262186	971.2	16.6
0	262187	971.2	16.4
0	262188	971.2	16.2
0	262189	971.2	16
0	262190	971.2	15.8
0	262191	971.2	15.6
0	262192	971.2	15.4
0	262193	971.2	15.2
0	262194	971.2	15
0	262195	971.2	14.8
0	262196	971.2	14.6
0	262197	971.2	14.4
0	262198	971.2	14.2
0	262199	971.2	14
0	262200	971.2	13.8
0	262201	971.2	13.6
0	262202	971.2	13.4
0	262203	971.2	13.2
0	262204	971.2	13
0	262205	971.2	12.8
0	262206	971.2	12.6
0	262207	971.2	12.4
0	262208	971.2	12.2
0	262209	971.2	12
0	262210	971.2	11.8
0	262211	971.2	11.6
0	262212	971.2	11.4
0	262213	971.2	11.2
0	262214	971.2	11
0	262215	971.2	10.8
0	262216	971.2	10.6
0	262217	971.2	10.4
0	262218	971.2	10.2
0	262219	971.2	10
0	262220	971.2	9.8
0	262221	971.2	9.6
0	262222	971.2	9.4
0	262223	971.2	9.2
0	262224	971.2	9
0	262225	971.2	8.8
0	262226	971.2	8.6
0	262227	971.2	8.4
0	262228	971.2	8.2
0	262229	971.2	8
0	262230	971.2	7.8
0	262231	971.2	7.6
0	262232	971.2	7.4
0	262233	971.2	7.2
0	262234	971.2	7
0	262235	971.2	6.8
0	262236	971.2	6.6
0	262237	971.2	6.4
0	262238	971.2	6.2
0	262239	971.2	6
0	262240	971.2	5.8
0	262241	971.2	5.6
0	262242	971.2	5.4
0	262243	971.2	5.2
0	262244	971.2	5
0	262245	971.2	4.8
0	262246	971.2	4.6
0	262247	971.2	4.4
0	262248	971.2	4.2
0	262249	971.2	4
0	262250	971.2	3.8
0	262251	971.2	3.6
0	262252	971.2	3.4
0	262253	971.2	3.2
0	262254	971.2	3
0	262255	971.2	2.8
0	262256	971.2	2.6
0	262257	971.2	2.4
0	265396	972.4	3.4
0	265397	972.4	3.2
0	265398	972.4	3
0	265399	972.4	2.8
0	265400	972.4	2.6
0	265401	972.4	2.4
0	265402	972.4	2.2
0	265403	972.4	2
0	265404	972.4	1.8
0	265405	972.4	1.6
0	265406	972.4	1.4
0	266072	972.6	1.4
0	266795	972.8	1.4
0	266838	973	1.4
0	266881	973.2	1.4
0	266924	973.4	1.4
0	266967	973.6	1.4
0	267032	973.8	1.4
0	267076	974	1.4
0	267114	974.2	1.4
0	267152	974.4	1.4
0	267190	974.6	1.4
0	267228	974.8	1.4
0	267408	975	1.4
0	269329	993.3	18.3
0	269330	993.3	18.1
0	269331	993.3	17.9
0	269332	993.3	17.7
0	269333	993.3	17.5
0	269334	993.3	17.3
0	269335	993.3	17.1
0	269336	993.3	16.9
0	269337	993.3	16.7
0	269338	993.3	16.5
0	269339	993.3	16.3
0	269340	993.3	16.1
0	269341	993.3	15.9
0	269342	993.3	15.7
0	269343	993.3	15.5
0	269344	993.3	15.3
0	269345	993.3	15.1
0	269346	993.3	14.9
0	269347	993.3	14.7
0	269348	993.3	14.5
0	269349	993.3	14.3
0	269350	993.3	14.1
0	269351	993.3	13.9
0	269352	993.3	13.7
0	269353	993.3	13.5
0	269354	993.3	13.3
0	269355	993.3	13.1
0	269356	993.3	12.9
0	269357	993.3	12.7
0	269358	993.3	12.5
0	269359	993.3	12.3
0	269360	993.3	12.1
0	269361	993.3	11.9
0	269362	993.3	11.7
0	269363	993.3	11.5
0	269364	993.3	19.5
0	269365	993.3	19.3
0	269366	993.3	19.1
0	269367	993.3	18.9
0	269368	993.3	18.7
0	269369	993.3	18.5


