version 2
run General-0-20250128-16:31:37-77732
attr configname General
attr datetime 20250128-16:31:37
attr experiment General
attr inifile shaw_exist.ini
attr iterationvars ""
attr iterationvarsf ""
attr measurement ""
attr network src.dtnsim
attr processid 77732
attr repetition 0
attr replication #0
attr resultdir results
attr runnumber 0
attr seedset 0
param dtnsim.central.contactsFile "\"contactPlan/Contacts.txt\""
param dtnsim.central.contactsFile_A "\"contactPlan/Contacts_A.txt\""
param dtnsim.central.contactsFile_B "\"contactPlan/Contacts_B.txt\""
param dtnsim.central.contactIdsToDelete "\"6 9 13 14 15 17 18 23 24 26 29 43 53 64 65 67 69 75 76 77 79 85 87 88 90 93 95 97 100 105 108 117 127 128 136 137 144 145 148 149 151 153 154 157 158 162 170 177 191 194 201 203 206 222 223 230 234 235 238 239 243 244 245 251 254 255 257 258 259 265 269 273 276 277 282 283 287 293 294 297 301 305 308 315 316 318 321 339 340 347 349 353 354 356 359 365 380 384 391 393\""
param dtnsim.central.contactIdsToDelete_from_celestialA "\"13 15 17 23 29 64 67 77 85 95 97 100 105 117 128 137 148 149 154 191 206 230 235 238 244 255 257 258 265 269 273 276 277 283 294 297 308 316 318 339 347 349 356 359 380 391 393\""
param dtnsim.central.contactIdsToDelete_from_celestialB "\"6 9 14 18 24 26 43 53 65 69 75 76 79 87 88 90 93 108 127 136 144 145 151 153 157 158 162 170 177 194 201 203 222 223 234 239 243 245 251 254 259 282 287 293 301 305 315 321 340 353 354 365 384\""
param dtnsim.central.celestialA_nodes "\"1 2 3\""
param dtnsim.central.celestialB_nodes "\"4 5 6\""
param dtnsim.central.locallyfaultsAware true
param dtnsim.central.mode_two_celestial true
param dtnsim.central.faultsAware false
param dtnsim.nodesNumber 6
param dtnsim.node[1].icon "\"receiverdish\""
param dtnsim.node[2..5].icon "\"satellite\""
param dtnsim.node[6].icon "\"receiverdish\""
param dtnsim.node[*].dtn.routing "\"cgrModel350\""
param dtnsim.node[*].dtn.routingType "\"routeListType:allPaths-firstEnding,volumeAware:allContacts,extensionBlock:on,contactPlan:global\""
param dtnsim.node[1].app.enable true
param dtnsim.node[1].app.custodyTransfer true
param dtnsim.node[1].app.bundlesNumber "\"2000\""
param dtnsim.node[1].app.start "\"0\""
param dtnsim.node[1].app.destinationEid "\"6\""
param dtnsim.node[1].app.size "\"1500\""
param dtnsim.node[1].app.interval 10
param dtnsim.node[*].app.custodyTimeout 10000
param dtnsim.node[1].app.ttl 3000

vector 0 dtnsim.node[6].app appBundleReceivedDelayvec:vector ETV
attr interpolationmode none
attr source appBundleReceivedDelay
attr title "appBundleReceivedDelayvec, vector"
0	7995	1458.07	1458.07
0	7996	1458.07	1448.07
0	7997	1458.07	1438.07
0	7998	1458.07	1428.07
0	7999	1458.07	1418.07
0	8000	1458.07	1408.07
0	8001	1458.07	1398.07
0	8002	1458.07	1388.07
0	8003	1458.07	1378.07
0	8004	1458.07	1368.07
0	8005	1458.07	1358.07
0	8006	1458.07	1348.07
0	8007	1458.07	1338.07
0	8008	1458.07	1328.07
0	8009	1458.07	1318.07
0	8010	1458.07	1308.07
0	8261	1460.07	1300.07
0	8368	1470.07	1300.07
0	8475	1480.07	1300.07
0	8582	1490.07	1300.07
0	8689	1500.07	1300.07
0	8796	1510.07	1300.07
0	8903	1520.07	1300.07
0	9010	1530.07	1300.07
0	9117	1540.07	1300.07
0	9224	1550.07	1300.07
0	9489	1558.07	1558.07
0	9490	1558.07	1548.07
0	9491	1558.07	1538.07
0	9492	1558.07	1528.07
0	9493	1558.07	1518.07
0	9494	1558.07	1508.07
0	9495	1558.07	1498.07
0	9496	1558.07	1488.07
0	9497	1558.07	1478.07
0	9498	1558.07	1468.07
0	9499	1558.07	1458.07
0	9500	1558.07	1448.07
0	9501	1558.07	1438.07
0	9502	1558.07	1428.07
0	9503	1558.07	1418.07
0	9504	1558.07	1408.07
0	9766	1560.07	1400.07
0	9767	1560.07	1300.07
0	9899	1570.07	1400.07
0	9900	1570.07	1300.07
0	10032	1580.07	1400.07
0	10033	1580.07	1300.07
0	10165	1590.07	1400.07
0	10166	1590.07	1300.07
0	10298	1600.07	1400.07
0	10299	1600.07	1300.07
0	10431	1610.07	1400.07
0	10432	1610.07	1300.07
0	10564	1620.07	1400.07
0	10565	1620.07	1300.07
0	10697	1630.07	1400.07
0	10698	1630.07	1300.07
0	10830	1640.07	1400.07
0	10831	1640.07	1300.07
0	10963	1650.07	1400.07
0	10964	1650.07	1300.07
0	11243	1658.07	1658.07
0	11244	1658.07	1648.07
0	11245	1658.07	1638.07
0	11246	1658.07	1628.07
0	11247	1658.07	1618.07
0	11248	1658.07	1608.07
0	11249	1658.07	1598.07
0	11250	1658.07	1588.07
0	11251	1658.07	1578.07
0	11252	1658.07	1568.07
0	11253	1658.07	1558.07
0	11254	1658.07	1548.07
0	11255	1658.07	1538.07
0	11256	1658.07	1528.07
0	11257	1658.07	1518.07
0	11258	1658.07	1508.07
0	11531	1660.07	1500.07
0	11532	1660.07	1400.07
0	11533	1660.07	1300.07
0	11690	1670.07	1500.07
0	11691	1670.07	1400.07
0	11692	1670.07	1300.07
0	11849	1680.07	1500.07
0	11850	1680.07	1400.07
0	11851	1680.07	1300.07
0	12008	1690.07	1500.07
0	12009	1690.07	1400.07
0	12010	1690.07	1300.07
0	12167	1700.07	1500.07
0	12168	1700.07	1400.07
0	12169	1700.07	1300.07
0	12326	1710.07	1500.07
0	12327	1710.07	1400.07
0	12328	1710.07	1300.07
0	12485	1720.07	1500.07
0	12486	1720.07	1400.07
0	12487	1720.07	1300.07
0	12644	1730.07	1500.07
0	12645	1730.07	1400.07
0	12646	1730.07	1300.07
0	12803	1740.07	1500.07
0	12804	1740.07	1400.07
0	12805	1740.07	1300.07
0	12962	1750.07	1500.07
0	12963	1750.07	1400.07
0	12964	1750.07	1300.07
0	13257	1758.07	1758.07
0	13258	1758.07	1748.07
0	13259	1758.07	1738.07
0	13260	1758.07	1728.07
0	13261	1758.07	1718.07
0	13262	1758.07	1708.07
0	13263	1758.07	1698.07
0	13264	1758.07	1688.07
0	13265	1758.07	1678.07
0	13266	1758.07	1668.07
0	13267	1758.07	1658.07
0	13268	1758.07	1648.07
0	13269	1758.07	1638.07
0	13270	1758.07	1628.07
0	13271	1758.07	1618.07
0	13272	1758.07	1608.07
0	13556	1760.07	1600.07
0	13557	1760.07	1500.07
0	13558	1760.07	1400.07
0	13559	1760.07	1300.07
0	13741	1770.07	1600.07
0	13742	1770.07	1500.07
0	13743	1770.07	1400.07
0	13744	1770.07	1300.07
0	13926	1780.07	1600.07
0	13927	1780.07	1500.07
0	13928	1780.07	1400.07
0	13929	1780.07	1300.07
0	14111	1790.07	1600.07
0	14112	1790.07	1500.07
0	14113	1790.07	1400.07
0	14114	1790.07	1300.07
0	14296	1800.07	1600.07
0	14297	1800.07	1500.07
0	14298	1800.07	1400.07
0	14299	1800.07	1300.07
0	14481	1810.07	1600.07
0	14482	1810.07	1500.07
0	14483	1810.07	1400.07
0	14484	1810.07	1300.07
0	14663	1820.07	1600.07
0	14664	1820.07	1500.07
0	14665	1820.07	1400.07
0	14666	1820.07	1300.07
0	14779	1830.07	1600.07
0	14780	1830.07	1500.07
0	14781	1830.07	1400.07
0	14782	1830.07	1300.07
0	14895	1840.07	1600.07
0	14896	1840.07	1500.07
0	14897	1840.07	1400.07
0	14898	1840.07	1300.07
0	15011	1850.07	1600.07
0	15012	1850.07	1500.07
0	15013	1850.07	1400.07
0	15014	1850.07	1300.07
0	15255	1858.07	1858.07
0	15256	1858.07	1848.07
0	15257	1858.07	1838.07
0	15258	1858.07	1828.07
0	15259	1858.07	1818.07
0	15260	1858.07	1808.07
0	15261	1858.07	1798.07
0	15262	1858.07	1788.07
0	15263	1858.07	1778.07
0	15264	1858.07	1768.07
0	15265	1858.07	1758.07
0	15266	1858.07	1748.07
0	15267	1858.07	1738.07
0	15268	1858.07	1728.07
0	15269	1858.07	1718.07
0	15270	1858.07	1708.07
0	15514	1860.07	1700.07
0	15515	1860.07	1600.07
0	15516	1860.07	1500.07
0	15517	1860.07	1400.07
0	15518	1860.07	1300.07
0	15653	1870.07	1700.07
0	15654	1870.07	1600.07
0	15655	1870.07	1500.07
0	15656	1870.07	1400.07
0	15657	1870.07	1300.07
0	15792	1880.07	1700.07
0	15793	1880.07	1600.07
0	15794	1880.07	1500.07
0	15795	1880.07	1400.07
0	15796	1880.07	1300.07
0	15931	1890.07	1700.07
0	15932	1890.07	1600.07
0	15933	1890.07	1500.07
0	15934	1890.07	1400.07
0	15935	1890.07	1300.07
0	16070	1900.07	1700.07
0	16071	1900.07	1600.07
0	16072	1900.07	1500.07
0	16073	1900.07	1400.07
0	16074	1900.07	1300.07
0	16209	1910.07	1700.07
0	16210	1910.07	1600.07
0	16211	1910.07	1500.07
0	16212	1910.07	1400.07
0	16213	1910.07	1300.07
0	16347	1920.07	1700.07
0	16348	1920.07	1600.07
0	16349	1920.07	1500.07
0	16350	1920.07	1400.07
0	16351	1920.07	1300.07
0	16466	1930.07	1700.07
0	16467	1930.07	1600.07
0	16468	1930.07	1500.07
0	16469	1930.07	1400.07
0	16470	1930.07	1300.07
0	16585	1940.07	1700.07
0	16586	1940.07	1600.07
0	16587	1940.07	1500.07
0	16588	1940.07	1400.07
0	16589	1940.07	1300.07
0	16704	1950.07	1700.07
0	16705	1950.07	1600.07
0	16706	1950.07	1500.07
0	16707	1950.07	1400.07
0	16708	1950.07	1300.07
0	16941	1958.07	1958.07
0	16942	1958.07	1948.07
0	16943	1958.07	1938.07
0	16944	1958.07	1928.07
0	16945	1958.07	1918.07
0	16946	1958.07	1908.07
0	16947	1958.07	1898.07
0	16948	1958.07	1888.07
0	16949	1958.07	1878.07
0	16950	1958.07	1868.07
0	16951	1958.07	1858.07
0	16952	1958.07	1848.07
0	16953	1958.07	1838.07
0	16954	1958.07	1828.07
0	16955	1958.07	1818.07
0	16956	1958.07	1808.07
0	17192	1960.07	1800.07
0	17193	1960.07	1700.07
0	17194	1960.07	1600.07
0	17195	1960.07	1500.07
0	17196	1960.07	1400.07
0	17197	1960.07	1300.07
0	17333	1970.07	1800.07
0	17334	1970.07	1700.07
0	17335	1970.07	1600.07
0	17336	1970.07	1500.07
0	17337	1970.07	1400.07
0	17338	1970.07	1300.07
0	17474	1980.07	1800.07
0	17475	1980.07	1700.07
0	17476	1980.07	1600.07
0	17477	1980.07	1500.07
0	17478	1980.07	1400.07
0	17479	1980.07	1300.07
0	17615	1990.07	1800.07
0	17616	1990.07	1700.07
0	17617	1990.07	1600.07
0	17618	1990.07	1500.07
0	17619	1990.07	1400.07
0	17620	1990.07	1300.07
0	17756	2000.07	1800.07
0	17757	2000.07	1700.07
0	17758	2000.07	1600.07
0	17759	2000.07	1500.07
0	17760	2000.07	1400.07
0	17761	2000.07	1300.07
0	17897	2010.07	1800.07
0	17898	2010.07	1700.07
0	17899	2010.07	1600.07
0	17900	2010.07	1500.07
0	17901	2010.07	1400.07
0	17902	2010.07	1300.07
0	18038	2020.07	1800.07
0	18039	2020.07	1700.07
0	18040	2020.07	1600.07
0	18041	2020.07	1500.07
0	18042	2020.07	1400.07
0	18043	2020.07	1300.07
0	18179	2030.07	1800.07
0	18180	2030.07	1700.07
0	18181	2030.07	1600.07
0	18182	2030.07	1500.07
0	18183	2030.07	1400.07
0	18184	2030.07	1300.07
0	18320	2040.07	1800.07
0	18321	2040.07	1700.07
0	18322	2040.07	1600.07
0	18323	2040.07	1500.07
0	18324	2040.07	1400.07
0	18325	2040.07	1300.07
0	18461	2050.07	1800.07
0	18462	2050.07	1700.07
0	18463	2050.07	1600.07
0	18464	2050.07	1500.07
0	18465	2050.07	1400.07
0	18466	2050.07	1300.07
0	18709	2058.07	2058.07
0	18710	2058.07	2048.07
0	18711	2058.07	2038.07
0	18712	2058.07	2028.07
0	18713	2058.07	2018.07
0	18714	2058.07	2008.07
0	18715	2058.07	1998.07
0	18716	2058.07	1988.07
0	18717	2058.07	1978.07
0	18718	2058.07	1968.07
0	18719	2058.07	1958.07
0	18720	2058.07	1948.07
0	18721	2058.07	1938.07
0	18722	2058.07	1928.07
0	18723	2058.07	1918.07
0	18724	2058.07	1908.07
0	18971	2060.07	1900.07
0	18972	2060.07	1800.07
0	18973	2060.07	1700.07
0	18974	2060.07	1600.07
0	18975	2060.07	1500.07
0	18976	2060.07	1400.07
0	18977	2060.07	1300.07
0	19134	2070.07	1900.07
0	19135	2070.07	1800.07
0	19136	2070.07	1700.07
0	19137	2070.07	1600.07
0	19138	2070.07	1500.07
0	19139	2070.07	1400.07
0	19140	2070.07	1300.07
0	19297	2080.07	1900.07
0	19298	2080.07	1800.07
0	19299	2080.07	1700.07
0	19300	2080.07	1600.07
0	19301	2080.07	1500.07
0	19302	2080.07	1400.07
0	19303	2080.07	1300.07
0	19460	2090.07	1900.07
0	19461	2090.07	1800.07
0	19462	2090.07	1700.07
0	19463	2090.07	1600.07
0	19464	2090.07	1500.07
0	19465	2090.07	1400.07
0	19466	2090.07	1300.07
0	19623	2100.07	1900.07
0	19624	2100.07	1800.07
0	19625	2100.07	1700.07
0	19626	2100.07	1600.07
0	19627	2100.07	1500.07
0	19628	2100.07	1400.07
0	19629	2100.07	1300.07
0	19786	2110.07	1900.07
0	19787	2110.07	1800.07
0	19788	2110.07	1700.07
0	19789	2110.07	1600.07
0	19790	2110.07	1500.07
0	19791	2110.07	1400.07
0	19792	2110.07	1300.07
0	19949	2120.07	1900.07
0	19950	2120.07	1800.07
0	19951	2120.07	1700.07
0	19952	2120.07	1600.07
0	19953	2120.07	1500.07
0	19954	2120.07	1400.07
0	19955	2120.07	1300.07
0	20112	2130.07	1900.07
0	20113	2130.07	1800.07
0	20114	2130.07	1700.07
0	20115	2130.07	1600.07
0	20116	2130.07	1500.07
0	20117	2130.07	1400.07
0	20118	2130.07	1300.07
0	20275	2140.07	1900.07
0	20276	2140.07	1800.07
0	20277	2140.07	1700.07
0	20278	2140.07	1600.07
0	20279	2140.07	1500.07
0	20280	2140.07	1400.07
0	20281	2140.07	1300.07
0	20438	2150.07	1900.07
0	20439	2150.07	1800.07
0	20440	2150.07	1700.07
0	20441	2150.07	1600.07
0	20442	2150.07	1500.07
0	20443	2150.07	1400.07
0	20444	2150.07	1300.07
0	20697	2158.07	2158.07
0	20698	2158.07	2148.07
0	20699	2158.07	2138.07
0	20700	2158.07	2128.07
0	20701	2158.07	2118.07
0	20702	2158.07	2108.07
0	20703	2158.07	2098.07
0	20704	2158.07	2088.07
0	20705	2158.07	2078.07
0	20706	2158.07	2068.07
0	20707	2158.07	2058.07
0	20708	2158.07	2048.07
0	20709	2158.07	2038.07
0	20710	2158.07	2028.07
0	20711	2158.07	2018.07
0	20712	2158.07	2008.07
0	20970	2160.07	2000.07
0	20971	2160.07	1900.07
0	20972	2160.07	1800.07
0	20973	2160.07	1700.07
0	20974	2160.07	1600.07
0	20975	2160.07	1500.07
0	20976	2160.07	1400.07
0	20977	2160.07	1300.07
0	21155	2170.07	2000.07
0	21156	2170.07	1900.07
0	21157	2170.07	1800.07
0	21158	2170.07	1700.07
0	21159	2170.07	1600.07
0	21160	2170.07	1500.07
0	21161	2170.07	1400.07
0	21162	2170.07	1300.07
0	21340	2180.07	2000.07
0	21341	2180.07	1900.07
0	21342	2180.07	1800.07
0	21343	2180.07	1700.07
0	21344	2180.07	1600.07
0	21345	2180.07	1500.07
0	21346	2180.07	1400.07
0	21347	2180.07	1300.07
0	21525	2190.07	2000.07
0	21526	2190.07	1900.07
0	21527	2190.07	1800.07
0	21528	2190.07	1700.07
0	21529	2190.07	1600.07
0	21530	2190.07	1500.07
0	21531	2190.07	1400.07
0	21532	2190.07	1300.07
0	21710	2200.07	2000.07
0	21711	2200.07	1900.07
0	21712	2200.07	1800.07
0	21713	2200.07	1700.07
0	21714	2200.07	1600.07
0	21715	2200.07	1500.07
0	21716	2200.07	1400.07
0	21717	2200.07	1300.07
0	21895	2210.07	2000.07
0	21896	2210.07	1900.07
0	21897	2210.07	1800.07
0	21898	2210.07	1700.07
0	21899	2210.07	1600.07
0	21900	2210.07	1500.07
0	21901	2210.07	1400.07
0	21902	2210.07	1300.07
0	22080	2220.07	2000.07
0	22081	2220.07	1900.07
0	22082	2220.07	1800.07
0	22083	2220.07	1700.07
0	22084	2220.07	1600.07
0	22085	2220.07	1500.07
0	22086	2220.07	1400.07
0	22087	2220.07	1300.07
0	22265	2230.07	2000.07
0	22266	2230.07	1900.07
0	22267	2230.07	1800.07
0	22268	2230.07	1700.07
0	22269	2230.07	1600.07
0	22270	2230.07	1500.07
0	22271	2230.07	1400.07
0	22272	2230.07	1300.07
0	22450	2240.07	2000.07
0	22451	2240.07	1900.07
0	22452	2240.07	1800.07
0	22453	2240.07	1700.07
0	22454	2240.07	1600.07
0	22455	2240.07	1500.07
0	22456	2240.07	1400.07
0	22457	2240.07	1300.07
0	22635	2250.07	2000.07
0	22636	2250.07	1900.07
0	22637	2250.07	1800.07
0	22638	2250.07	1700.07
0	22639	2250.07	1600.07
0	22640	2250.07	1500.07
0	22641	2250.07	1400.07
0	22642	2250.07	1300.07
0	22905	2258.07	2258.07
0	22906	2258.07	2248.07
0	22907	2258.07	2238.07
0	22908	2258.07	2228.07
0	22909	2258.07	2218.07
0	22910	2258.07	2208.07
0	22911	2258.07	2198.07
0	22912	2258.07	2188.07
0	22913	2258.07	2178.07
0	22914	2258.07	2168.07
0	22915	2258.07	2158.07
0	22916	2258.07	2148.07
0	22917	2258.07	2138.07
0	22918	2258.07	2128.07
0	22919	2258.07	2118.07
0	22920	2258.07	2108.07
0	23189	2260.07	2100.07
0	23190	2260.07	2000.07
0	23191	2260.07	1900.07
0	23192	2260.07	1800.07
0	23193	2260.07	1700.07
0	23194	2260.07	1600.07
0	23195	2260.07	1500.07
0	23196	2260.07	1400.07
0	23197	2260.07	1300.07
0	23396	2270.07	2100.07
0	23397	2270.07	2000.07
0	23398	2270.07	1900.07
0	23399	2270.07	1800.07
0	23400	2270.07	1700.07
0	23401	2270.07	1600.07
0	23402	2270.07	1500.07
0	23403	2270.07	1400.07
0	23404	2270.07	1300.07
0	23603	2280.07	2100.07
0	23604	2280.07	2000.07
0	23605	2280.07	1900.07
0	23606	2280.07	1800.07
0	23607	2280.07	1700.07
0	23608	2280.07	1600.07
0	23609	2280.07	1500.07
0	23610	2280.07	1400.07
0	23611	2280.07	1300.07
0	23810	2290.07	2100.07
0	23811	2290.07	2000.07
0	23812	2290.07	1900.07
0	23813	2290.07	1800.07
0	23814	2290.07	1700.07
0	23815	2290.07	1600.07
0	23816	2290.07	1500.07
0	23817	2290.07	1400.07
0	23818	2290.07	1300.07
0	24017	2300.07	2100.07
0	24018	2300.07	2000.07
0	24019	2300.07	1900.07
0	24020	2300.07	1800.07
0	24021	2300.07	1700.07
0	24022	2300.07	1600.07
0	24023	2300.07	1500.07
0	24024	2300.07	1400.07
0	24025	2300.07	1300.07
0	24224	2310.07	2100.07
0	24225	2310.07	2000.07
0	24226	2310.07	1900.07
0	24227	2310.07	1800.07
0	24228	2310.07	1700.07
0	24229	2310.07	1600.07
0	24230	2310.07	1500.07
0	24231	2310.07	1400.07
0	24232	2310.07	1300.07
0	24431	2320.07	2100.07
0	24432	2320.07	2000.07
0	24433	2320.07	1900.07
0	24434	2320.07	1800.07
0	24435	2320.07	1700.07
0	24436	2320.07	1600.07
0	24437	2320.07	1500.07
0	24438	2320.07	1400.07
0	24439	2320.07	1300.07
0	24638	2330.07	2100.07
0	24639	2330.07	2000.07
0	24640	2330.07	1900.07
0	24641	2330.07	1800.07
0	24642	2330.07	1700.07
0	24643	2330.07	1600.07
0	24644	2330.07	1500.07
0	24645	2330.07	1400.07
0	24646	2330.07	1300.07
0	24845	2340.07	2100.07
0	24846	2340.07	2000.07
0	24847	2340.07	1900.07
0	24848	2340.07	1800.07
0	24849	2340.07	1700.07
0	24850	2340.07	1600.07
0	24851	2340.07	1500.07
0	24852	2340.07	1400.07
0	24853	2340.07	1300.07
0	25052	2350.07	2100.07
0	25053	2350.07	2000.07
0	25054	2350.07	1900.07
0	25055	2350.07	1800.07
0	25056	2350.07	1700.07
0	25057	2350.07	1600.07
0	25058	2350.07	1500.07
0	25059	2350.07	1400.07
0	25060	2350.07	1300.07
0	25333	2358.07	2358.07
0	25334	2358.07	2348.07
0	25335	2358.07	2338.07
0	25336	2358.07	2328.07
0	25337	2358.07	2318.07
0	25338	2358.07	2308.07
0	25339	2358.07	2298.07
0	25340	2358.07	2288.07
0	25341	2358.07	2278.07
0	25342	2358.07	2268.07
0	25343	2358.07	2258.07
0	25344	2358.07	2248.07
0	25345	2358.07	2238.07
0	25346	2358.07	2228.07
0	25347	2358.07	2218.07
0	25348	2358.07	2208.07
0	25628	2360.07	2200.07
0	25629	2360.07	2100.07
0	25630	2360.07	2000.07
0	25631	2360.07	1900.07
0	25632	2360.07	1800.07
0	25633	2360.07	1700.07
0	25634	2360.07	1600.07
0	25635	2360.07	1500.07
0	25636	2360.07	1400.07
0	25637	2360.07	1300.07
0	25857	2370.07	2200.07
0	25858	2370.07	2100.07
0	25859	2370.07	2000.07
0	25860	2370.07	1900.07
0	25861	2370.07	1800.07
0	25862	2370.07	1700.07
0	25863	2370.07	1600.07
0	25864	2370.07	1500.07
0	25865	2370.07	1400.07
0	25866	2370.07	1300.07
0	26086	2380.07	2200.07
0	26087	2380.07	2100.07
0	26088	2380.07	2000.07
0	26089	2380.07	1900.07
0	26090	2380.07	1800.07
0	26091	2380.07	1700.07
0	26092	2380.07	1600.07
0	26093	2380.07	1500.07
0	26094	2380.07	1400.07
0	26095	2380.07	1300.07
0	26315	2390.07	2200.07
0	26316	2390.07	2100.07
0	26317	2390.07	2000.07
0	26318	2390.07	1900.07
0	26319	2390.07	1800.07
0	26320	2390.07	1700.07
0	26321	2390.07	1600.07
0	26322	2390.07	1500.07
0	26323	2390.07	1400.07
0	26324	2390.07	1300.07
0	26544	2400.07	2200.07
0	26545	2400.07	2100.07
0	26546	2400.07	2000.07
0	26547	2400.07	1900.07
0	26548	2400.07	1800.07
0	26549	2400.07	1700.07
0	26550	2400.07	1600.07
0	26551	2400.07	1500.07
0	26552	2400.07	1400.07
0	26553	2400.07	1300.07
0	26773	2410.07	2200.07
0	26774	2410.07	2100.07
0	26775	2410.07	2000.07
0	26776	2410.07	1900.07
0	26777	2410.07	1800.07
0	26778	2410.07	1700.07
0	26779	2410.07	1600.07
0	26780	2410.07	1500.07
0	26781	2410.07	1400.07
0	26782	2410.07	1300.07
0	27002	2420.07	2200.07
0	27003	2420.07	2100.07
0	27004	2420.07	2000.07
0	27005	2420.07	1900.07
0	27006	2420.07	1800.07
0	27007	2420.07	1700.07
0	27008	2420.07	1600.07
0	27009	2420.07	1500.07
0	27010	2420.07	1400.07
0	27011	2420.07	1300.07
0	27231	2430.07	2200.07
0	27232	2430.07	2100.07
0	27233	2430.07	2000.07
0	27234	2430.07	1900.07
0	27235	2430.07	1800.07
0	27236	2430.07	1700.07
0	27237	2430.07	1600.07
0	27238	2430.07	1500.07
0	27239	2430.07	1400.07
0	27240	2430.07	1300.07
0	27460	2440.07	2200.07
0	27461	2440.07	2100.07
0	27462	2440.07	2000.07
0	27463	2440.07	1900.07
0	27464	2440.07	1800.07
0	27465	2440.07	1700.07
0	27466	2440.07	1600.07
0	27467	2440.07	1500.07
0	27468	2440.07	1400.07
0	27469	2440.07	1300.07
0	27689	2450.07	2200.07
0	27690	2450.07	2100.07
0	27691	2450.07	2000.07
0	27692	2450.07	1900.07
0	27693	2450.07	1800.07
0	27694	2450.07	1700.07
0	27695	2450.07	1600.07
0	27696	2450.07	1500.07
0	27697	2450.07	1400.07
0	27698	2450.07	1300.07
0	27981	2458.07	2458.07
0	27982	2458.07	2448.07
0	27983	2458.07	2438.07
0	27984	2458.07	2428.07
0	27985	2458.07	2418.07
0	27986	2458.07	2408.07
0	27987	2458.07	2398.07
0	27988	2458.07	2388.07
0	27989	2458.07	2378.07
0	27990	2458.07	2368.07
0	27991	2458.07	2358.07
0	27992	2458.07	2348.07
0	27993	2458.07	2338.07
0	27994	2458.07	2328.07
0	27995	2458.07	2318.07
0	27996	2458.07	2308.07
0	28287	2460.07	2300.07
0	28288	2460.07	2200.07
0	28289	2460.07	2100.07
0	28290	2460.07	2000.07
0	28291	2460.07	1900.07
0	28292	2460.07	1800.07
0	28293	2460.07	1700.07
0	28294	2460.07	1600.07
0	28295	2460.07	1500.07
0	28296	2460.07	1400.07
0	28297	2460.07	1300.07
0	28538	2470.07	2300.07
0	28539	2470.07	2200.07
0	28540	2470.07	2100.07
0	28541	2470.07	2000.07
0	28542	2470.07	1900.07
0	28543	2470.07	1800.07
0	28544	2470.07	1700.07
0	28545	2470.07	1600.07
0	28546	2470.07	1500.07
0	28547	2470.07	1400.07
0	28548	2470.07	1300.07
0	28789	2480.07	2300.07
0	28790	2480.07	2200.07
0	28791	2480.07	2100.07
0	28792	2480.07	2000.07
0	28793	2480.07	1900.07
0	28794	2480.07	1800.07
0	28795	2480.07	1700.07
0	28796	2480.07	1600.07
0	28797	2480.07	1500.07
0	28798	2480.07	1400.07
0	28799	2480.07	1300.07
0	29040	2490.07	2300.07
0	29041	2490.07	2200.07
0	29042	2490.07	2100.07
0	29043	2490.07	2000.07
0	29044	2490.07	1900.07
0	29045	2490.07	1800.07
0	29046	2490.07	1700.07
0	29047	2490.07	1600.07
0	29048	2490.07	1500.07
0	29049	2490.07	1400.07
0	29050	2490.07	1300.07
0	29291	2500.07	2300.07
0	29292	2500.07	2200.07
0	29293	2500.07	2100.07
0	29294	2500.07	2000.07
0	29295	2500.07	1900.07
0	29296	2500.07	1800.07
0	29297	2500.07	1700.07
0	29298	2500.07	1600.07
0	29299	2500.07	1500.07
0	29300	2500.07	1400.07
0	29301	2500.07	1300.07
0	29542	2510.07	2300.07
0	29543	2510.07	2200.07
0	29544	2510.07	2100.07
0	29545	2510.07	2000.07
0	29546	2510.07	1900.07
0	29547	2510.07	1800.07
0	29548	2510.07	1700.07
0	29549	2510.07	1600.07
0	29550	2510.07	1500.07
0	29551	2510.07	1400.07
0	29552	2510.07	1300.07
0	29793	2520.07	2300.07
0	29794	2520.07	2200.07
0	29795	2520.07	2100.07
0	29796	2520.07	2000.07
0	29797	2520.07	1900.07
0	29798	2520.07	1800.07
0	29799	2520.07	1700.07
0	29800	2520.07	1600.07
0	29801	2520.07	1500.07
0	29802	2520.07	1400.07
0	29803	2520.07	1300.07
0	30044	2530.07	2300.07
0	30045	2530.07	2200.07
0	30046	2530.07	2100.07
0	30047	2530.07	2000.07
0	30048	2530.07	1900.07
0	30049	2530.07	1800.07
0	30050	2530.07	1700.07
0	30051	2530.07	1600.07
0	30052	2530.07	1500.07
0	30053	2530.07	1400.07
0	30054	2530.07	1300.07
0	30295	2540.07	2300.07
0	30296	2540.07	2200.07
0	30297	2540.07	2100.07
0	30298	2540.07	2000.07
0	30299	2540.07	1900.07
0	30300	2540.07	1800.07
0	30301	2540.07	1700.07
0	30302	2540.07	1600.07
0	30303	2540.07	1500.07
0	30304	2540.07	1400.07
0	30305	2540.07	1300.07
0	30546	2550.07	2300.07
0	30547	2550.07	2200.07
0	30548	2550.07	2100.07
0	30549	2550.07	2000.07
0	30550	2550.07	1900.07
0	30551	2550.07	1800.07
0	30552	2550.07	1700.07
0	30553	2550.07	1600.07
0	30554	2550.07	1500.07
0	30555	2550.07	1400.07
0	30556	2550.07	1300.07
0	30849	2558.07	2558.07
0	30850	2558.07	2548.07
0	30851	2558.07	2538.07
0	30852	2558.07	2528.07
0	30853	2558.07	2518.07
0	30854	2558.07	2508.07
0	30855	2558.07	2498.07
0	30856	2558.07	2488.07
0	30857	2558.07	2478.07
0	30858	2558.07	2468.07
0	30859	2558.07	2458.07
0	30860	2558.07	2448.07
0	30861	2558.07	2438.07
0	30862	2558.07	2428.07
0	30863	2558.07	2418.07
0	30864	2558.07	2408.07
0	31166	2560.07	2400.07
0	31167	2560.07	2300.07
0	31168	2560.07	2200.07
0	31169	2560.07	2100.07
0	31170	2560.07	2000.07
0	31171	2560.07	1900.07
0	31172	2560.07	1800.07
0	31173	2560.07	1700.07
0	31174	2560.07	1600.07
0	31175	2560.07	1500.07
0	31176	2560.07	1400.07
0	31177	2560.07	1300.07
0	31439	2570.07	2400.07
0	31440	2570.07	2300.07
0	31441	2570.07	2200.07
0	31442	2570.07	2100.07
0	31443	2570.07	2000.07
0	31444	2570.07	1900.07
0	31445	2570.07	1800.07
0	31446	2570.07	1700.07
0	31447	2570.07	1600.07
0	31448	2570.07	1500.07
0	31449	2570.07	1400.07
0	31450	2570.07	1300.07
0	31712	2580.07	2400.07
0	31713	2580.07	2300.07
0	31714	2580.07	2200.07
0	31715	2580.07	2100.07
0	31716	2580.07	2000.07
0	31717	2580.07	1900.07
0	31718	2580.07	1800.07
0	31719	2580.07	1700.07
0	31720	2580.07	1600.07
0	31721	2580.07	1500.07
0	31722	2580.07	1400.07
0	31723	2580.07	1300.07
0	31985	2590.07	2400.07
0	31986	2590.07	2300.07
0	31987	2590.07	2200.07
0	31988	2590.07	2100.07
0	31989	2590.07	2000.07
0	31990	2590.07	1900.07
0	31991	2590.07	1800.07
0	31992	2590.07	1700.07
0	31993	2590.07	1600.07
0	31994	2590.07	1500.07
0	31995	2590.07	1400.07
0	31996	2590.07	1300.07
0	32258	2600.07	2400.07
0	32259	2600.07	2300.07
0	32260	2600.07	2200.07
0	32261	2600.07	2100.07
0	32262	2600.07	2000.07
0	32263	2600.07	1900.07
0	32264	2600.07	1800.07
0	32265	2600.07	1700.07
0	32266	2600.07	1600.07
0	32267	2600.07	1500.07
0	32268	2600.07	1400.07
0	32269	2600.07	1300.07
0	32531	2610.07	2400.07
0	32532	2610.07	2300.07
0	32533	2610.07	2200.07
0	32534	2610.07	2100.07
0	32535	2610.07	2000.07
0	32536	2610.07	1900.07
0	32537	2610.07	1800.07
0	32538	2610.07	1700.07
0	32539	2610.07	1600.07
0	32540	2610.07	1500.07
0	32541	2610.07	1400.07
0	32542	2610.07	1300.07
0	32804	2620.07	2400.07
0	32805	2620.07	2300.07
0	32806	2620.07	2200.07
0	32807	2620.07	2100.07
0	32808	2620.07	2000.07
0	32809	2620.07	1900.07
0	32810	2620.07	1800.07
0	32811	2620.07	1700.07
0	32812	2620.07	1600.07
0	32813	2620.07	1500.07
0	32814	2620.07	1400.07
0	32815	2620.07	1300.07
0	33077	2630.07	2400.07
0	33078	2630.07	2300.07
0	33079	2630.07	2200.07
0	33080	2630.07	2100.07
0	33081	2630.07	2000.07
0	33082	2630.07	1900.07
0	33083	2630.07	1800.07
0	33084	2630.07	1700.07
0	33085	2630.07	1600.07
0	33086	2630.07	1500.07
0	33087	2630.07	1400.07
0	33088	2630.07	1300.07
0	33350	2640.07	2400.07
0	33351	2640.07	2300.07
0	33352	2640.07	2200.07
0	33353	2640.07	2100.07
0	33354	2640.07	2000.07
0	33355	2640.07	1900.07
0	33356	2640.07	1800.07
0	33357	2640.07	1700.07
0	33358	2640.07	1600.07
0	33359	2640.07	1500.07
0	33360	2640.07	1400.07
0	33361	2640.07	1300.07
0	33623	2650.07	2400.07
0	33624	2650.07	2300.07
0	33625	2650.07	2200.07
0	33626	2650.07	2100.07
0	33627	2650.07	2000.07
0	33628	2650.07	1900.07
0	33629	2650.07	1800.07
0	33630	2650.07	1700.07
0	33631	2650.07	1600.07
0	33632	2650.07	1500.07
0	33633	2650.07	1400.07
0	33634	2650.07	1300.07
0	33937	2658.07	2658.07
0	33938	2658.07	2648.07
0	33939	2658.07	2638.07
0	33940	2658.07	2628.07
0	33941	2658.07	2618.07
0	33942	2658.07	2608.07
0	33943	2658.07	2598.07
0	33944	2658.07	2588.07
0	33945	2658.07	2578.07
0	33946	2658.07	2568.07
0	33947	2658.07	2558.07
0	33948	2658.07	2548.07
0	33949	2658.07	2538.07
0	33950	2658.07	2528.07
0	33951	2658.07	2518.07
0	33952	2658.07	2508.07
0	34265	2660.07	2500.07
0	34266	2660.07	2400.07
0	34267	2660.07	2300.07
0	34268	2660.07	2200.07
0	34269	2660.07	2100.07
0	34270	2660.07	2000.07
0	34271	2660.07	1900.07
0	34272	2660.07	1800.07
0	34273	2660.07	1700.07
0	34274	2660.07	1600.07
0	34275	2660.07	1500.07
0	34276	2660.07	1400.07
0	34277	2660.07	1300.07
0	34560	2670.07	2500.07
0	34561	2670.07	2400.07
0	34562	2670.07	2300.07
0	34563	2670.07	2200.07
0	34564	2670.07	2100.07
0	34565	2670.07	2000.07
0	34566	2670.07	1900.07
0	34567	2670.07	1800.07
0	34568	2670.07	1700.07
0	34569	2670.07	1600.07
0	34570	2670.07	1500.07
0	34571	2670.07	1400.07
0	34572	2670.07	1300.07
0	34855	2680.07	2500.07
0	34856	2680.07	2400.07
0	34857	2680.07	2300.07
0	34858	2680.07	2200.07
0	34859	2680.07	2100.07
0	34860	2680.07	2000.07
0	34861	2680.07	1900.07
0	34862	2680.07	1800.07
0	34863	2680.07	1700.07
0	34864	2680.07	1600.07
0	34865	2680.07	1500.07
0	34866	2680.07	1400.07
0	34867	2680.07	1300.07
0	35150	2690.07	2500.07
0	35151	2690.07	2400.07
0	35152	2690.07	2300.07
0	35153	2690.07	2200.07
0	35154	2690.07	2100.07
0	35155	2690.07	2000.07
0	35156	2690.07	1900.07
0	35157	2690.07	1800.07
0	35158	2690.07	1700.07
0	35159	2690.07	1600.07
0	35160	2690.07	1500.07
0	35161	2690.07	1400.07
0	35162	2690.07	1300.07
0	35445	2700.07	2500.07
0	35446	2700.07	2400.07
0	35447	2700.07	2300.07
0	35448	2700.07	2200.07
0	35449	2700.07	2100.07
0	35450	2700.07	2000.07
0	35451	2700.07	1900.07
0	35452	2700.07	1800.07
0	35453	2700.07	1700.07
0	35454	2700.07	1600.07
0	35455	2700.07	1500.07
0	35456	2700.07	1400.07
0	35457	2700.07	1300.07
0	35740	2710.07	2500.07
0	35741	2710.07	2400.07
0	35742	2710.07	2300.07
0	35743	2710.07	2200.07
0	35744	2710.07	2100.07
0	35745	2710.07	2000.07
0	35746	2710.07	1900.07
0	35747	2710.07	1800.07
0	35748	2710.07	1700.07
0	35749	2710.07	1600.07
0	35750	2710.07	1500.07
0	35751	2710.07	1400.07
0	35752	2710.07	1300.07
0	36035	2720.07	2500.07
0	36036	2720.07	2400.07
0	36037	2720.07	2300.07
0	36038	2720.07	2200.07
0	36039	2720.07	2100.07
0	36040	2720.07	2000.07
0	36041	2720.07	1900.07
0	36042	2720.07	1800.07
0	36043	2720.07	1700.07
0	36044	2720.07	1600.07
0	36045	2720.07	1500.07
0	36046	2720.07	1400.07
0	36047	2720.07	1300.07
0	36330	2730.07	2500.07
0	36331	2730.07	2400.07
0	36332	2730.07	2300.07
0	36333	2730.07	2200.07
0	36334	2730.07	2100.07
0	36335	2730.07	2000.07
0	36336	2730.07	1900.07
0	36337	2730.07	1800.07
0	36338	2730.07	1700.07
0	36339	2730.07	1600.07
0	36340	2730.07	1500.07
0	36341	2730.07	1400.07
0	36342	2730.07	1300.07
0	36625	2740.07	2500.07
0	36626	2740.07	2400.07
0	36627	2740.07	2300.07
0	36628	2740.07	2200.07
0	36629	2740.07	2100.07
0	36630	2740.07	2000.07
0	36631	2740.07	1900.07
0	36632	2740.07	1800.07
0	36633	2740.07	1700.07
0	36634	2740.07	1600.07
0	36635	2740.07	1500.07
0	36636	2740.07	1400.07
0	36637	2740.07	1300.07
0	36920	2750.07	2500.07
0	36921	2750.07	2400.07
0	36922	2750.07	2300.07
0	36923	2750.07	2200.07
0	36924	2750.07	2100.07
0	36925	2750.07	2000.07
0	36926	2750.07	1900.07
0	36927	2750.07	1800.07
0	36928	2750.07	1700.07
0	36929	2750.07	1600.07
0	36930	2750.07	1500.07
0	36931	2750.07	1400.07
0	36932	2750.07	1300.07
0	37328	2758.07	2758.07
0	37329	2758.07	2748.07
0	37330	2758.07	2738.07
0	37331	2758.07	2728.07
0	37332	2758.07	2718.07
0	37333	2758.07	2708.07
0	37334	2758.07	2698.07
0	37335	2758.07	2688.07
0	37336	2758.07	2678.07
0	37337	2758.07	2668.07
0	37338	2758.07	2658.07
0	37339	2758.07	2648.07
0	37340	2758.07	2638.07
0	37341	2758.07	2628.07
0	37342	2758.07	2618.07
0	37343	2758.07	2608.07
0	37789	2760.07	2600.07
0	37790	2760.07	2500.07
0	37791	2760.07	2400.07
0	37792	2760.07	2300.07
0	37793	2760.07	2200.07
0	37794	2760.07	2100.07
0	37795	2760.07	2000.07
0	37796	2760.07	1900.07
0	37797	2760.07	1800.07
0	37798	2760.07	1700.07
0	37799	2760.07	1600.07
0	37800	2760.07	1500.07
0	37801	2760.07	1400.07
0	37802	2760.07	1300.07
0	38123	2770.07	2600.07
0	38124	2770.07	2500.07
0	38125	2770.07	2400.07
0	38126	2770.07	2300.07
0	38127	2770.07	2200.07
0	38128	2770.07	2100.07
0	38129	2770.07	2000.07
0	38130	2770.07	1900.07
0	38131	2770.07	1800.07
0	38132	2770.07	1700.07
0	38133	2770.07	1600.07
0	38134	2770.07	1500.07
0	38135	2770.07	1400.07
0	38136	2770.07	1300.07
0	38457	2780.07	2600.07
0	38458	2780.07	2500.07
0	38459	2780.07	2400.07
0	38460	2780.07	2300.07
0	38461	2780.07	2200.07
0	38462	2780.07	2100.07
0	38463	2780.07	2000.07
0	38464	2780.07	1900.07
0	38465	2780.07	1800.07
0	38466	2780.07	1700.07
0	38467	2780.07	1600.07
0	38468	2780.07	1500.07
0	38469	2780.07	1400.07
0	38470	2780.07	1300.07
0	38791	2790.07	2600.07
0	38792	2790.07	2500.07
0	38793	2790.07	2400.07
0	38794	2790.07	2300.07
0	38795	2790.07	2200.07
0	38796	2790.07	2100.07
0	38797	2790.07	2000.07
0	38798	2790.07	1900.07
0	38799	2790.07	1800.07
0	38800	2790.07	1700.07
0	38801	2790.07	1600.07
0	38802	2790.07	1500.07
0	38803	2790.07	1400.07
0	38804	2790.07	1300.07
0	39125	2800.07	2600.07
0	39126	2800.07	2500.07
0	39127	2800.07	2400.07
0	39128	2800.07	2300.07
0	39129	2800.07	2200.07
0	39130	2800.07	2100.07
0	39131	2800.07	2000.07
0	39132	2800.07	1900.07
0	39133	2800.07	1800.07
0	39134	2800.07	1700.07
0	39135	2800.07	1600.07
0	39136	2800.07	1500.07
0	39137	2800.07	1400.07
0	39138	2800.07	1300.07
0	39459	2810.07	2600.07
0	39460	2810.07	2500.07
0	39461	2810.07	2400.07
0	39462	2810.07	2300.07
0	39463	2810.07	2200.07
0	39464	2810.07	2100.07
0	39465	2810.07	2000.07
0	39466	2810.07	1900.07
0	39467	2810.07	1800.07
0	39468	2810.07	1700.07
0	39469	2810.07	1600.07
0	39470	2810.07	1500.07
0	39471	2810.07	1400.07
0	39472	2810.07	1300.07
0	39793	2820.07	2600.07
0	39794	2820.07	2500.07
0	39795	2820.07	2400.07
0	39796	2820.07	2300.07
0	39797	2820.07	2200.07
0	39798	2820.07	2100.07
0	39799	2820.07	2000.07
0	39800	2820.07	1900.07
0	39801	2820.07	1800.07
0	39802	2820.07	1700.07
0	39803	2820.07	1600.07
0	39804	2820.07	1500.07
0	39805	2820.07	1400.07
0	39806	2820.07	1300.07
0	40127	2830.07	2600.07
0	40128	2830.07	2500.07
0	40129	2830.07	2400.07
0	40130	2830.07	2300.07
0	40131	2830.07	2200.07
0	40132	2830.07	2100.07
0	40133	2830.07	2000.07
0	40134	2830.07	1900.07
0	40135	2830.07	1800.07
0	40136	2830.07	1700.07
0	40137	2830.07	1600.07
0	40138	2830.07	1500.07
0	40139	2830.07	1400.07
0	40140	2830.07	1300.07
0	40461	2840.07	2600.07
0	40462	2840.07	2500.07
0	40463	2840.07	2400.07
0	40464	2840.07	2300.07
0	40465	2840.07	2200.07
0	40466	2840.07	2100.07
0	40467	2840.07	2000.07
0	40468	2840.07	1900.07
0	40469	2840.07	1800.07
0	40470	2840.07	1700.07
0	40471	2840.07	1600.07
0	40472	2840.07	1500.07
0	40473	2840.07	1400.07
0	40474	2840.07	1300.07
0	40795	2850.07	2600.07
0	40796	2850.07	2500.07
0	40797	2850.07	2400.07
0	40798	2850.07	2300.07
0	40799	2850.07	2200.07
0	40800	2850.07	2100.07
0	40801	2850.07	2000.07
0	40802	2850.07	1900.07
0	40803	2850.07	1800.07
0	40804	2850.07	1700.07
0	40805	2850.07	1600.07
0	40806	2850.07	1500.07
0	40807	2850.07	1400.07
0	40808	2850.07	1300.07
0	41223	2858.07	2858.07
0	41224	2858.07	2848.07
0	41225	2858.07	2838.07
0	41226	2858.07	2828.07
0	41227	2858.07	2818.07
0	41228	2858.07	2808.07
0	41229	2858.07	2798.07
0	41230	2858.07	2788.07
0	41231	2858.07	2778.07
0	41232	2858.07	2768.07
0	41233	2858.07	2758.07
0	41234	2858.07	2748.07
0	41235	2858.07	2738.07
0	41236	2858.07	2728.07
0	41237	2858.07	2718.07
0	41238	2858.07	2708.07
0	41700	2860.07	2700.07
0	41701	2860.07	2600.07
0	41702	2860.07	2500.07
0	41703	2860.07	2400.07
0	41704	2860.07	2300.07
0	41705	2860.07	2200.07
0	41706	2860.07	2100.07
0	41707	2860.07	2000.07
0	41708	2860.07	1900.07
0	41709	2860.07	1800.07
0	41710	2860.07	1700.07
0	41711	2860.07	1600.07
0	41712	2860.07	1500.07
0	41713	2860.07	1400.07
0	41714	2860.07	1300.07
0	42068	2870.07	2700.07
0	42069	2870.07	2600.07
0	42070	2870.07	2500.07
0	42071	2870.07	2400.07
0	42072	2870.07	2300.07
0	42073	2870.07	2200.07
0	42074	2870.07	2100.07
0	42075	2870.07	2000.07
0	42076	2870.07	1900.07
0	42077	2870.07	1800.07
0	42078	2870.07	1700.07
0	42079	2870.07	1600.07
0	42080	2870.07	1500.07
0	42081	2870.07	1400.07
0	42082	2870.07	1300.07
0	42391	2880.07	2700.07
0	42392	2880.07	2600.07
0	42393	2880.07	2500.07
0	42394	2880.07	2400.07
0	42395	2880.07	2300.07
0	42396	2880.07	2200.07
0	42397	2880.07	2100.07
0	42398	2880.07	2000.07
0	42399	2880.07	1900.07
0	42400	2880.07	1800.07
0	42401	2880.07	1700.07
0	42402	2880.07	1600.07
0	42403	2880.07	1500.07
0	42404	2880.07	1400.07
0	42405	2880.07	1300.07
0	42714	2890.07	2700.07
0	42715	2890.07	2600.07
0	42716	2890.07	2500.07
0	42717	2890.07	2400.07
0	42718	2890.07	2300.07
0	42719	2890.07	2200.07
0	42720	2890.07	2100.07
0	42721	2890.07	2000.07
0	42722	2890.07	1900.07
0	42723	2890.07	1800.07
0	42724	2890.07	1700.07
0	42725	2890.07	1600.07
0	42726	2890.07	1500.07
0	42727	2890.07	1400.07
0	42728	2890.07	1300.07
0	43037	2900.07	2700.07
0	43038	2900.07	2600.07
0	43039	2900.07	2500.07
0	43040	2900.07	2400.07
0	43041	2900.07	2300.07
0	43042	2900.07	2200.07
0	43043	2900.07	2100.07
0	43044	2900.07	2000.07
0	43045	2900.07	1900.07
0	43046	2900.07	1800.07
0	43047	2900.07	1700.07
0	43048	2900.07	1600.07
0	43049	2900.07	1500.07
0	43050	2900.07	1400.07
0	43051	2900.07	1300.07
0	43360	2910.07	2700.07
0	43361	2910.07	2600.07
0	43362	2910.07	2500.07
0	43363	2910.07	2400.07
0	43364	2910.07	2300.07
0	43365	2910.07	2200.07
0	43366	2910.07	2100.07
0	43367	2910.07	2000.07
0	43368	2910.07	1900.07
0	43369	2910.07	1800.07
0	43370	2910.07	1700.07
0	43371	2910.07	1600.07
0	43372	2910.07	1500.07
0	43373	2910.07	1400.07
0	43374	2910.07	1300.07
0	43683	2920.07	2700.07
0	43684	2920.07	2600.07
0	43685	2920.07	2500.07
0	43686	2920.07	2400.07
0	43687	2920.07	2300.07
0	43688	2920.07	2200.07
0	43689	2920.07	2100.07
0	43690	2920.07	2000.07
0	43691	2920.07	1900.07
0	43692	2920.07	1800.07
0	43693	2920.07	1700.07
0	43694	2920.07	1600.07
0	43695	2920.07	1500.07
0	43696	2920.07	1400.07
0	43697	2920.07	1300.07
0	44006	2930.07	2700.07
0	44007	2930.07	2600.07
0	44008	2930.07	2500.07
0	44009	2930.07	2400.07
0	44010	2930.07	2300.07
0	44011	2930.07	2200.07
0	44012	2930.07	2100.07
0	44013	2930.07	2000.07
0	44014	2930.07	1900.07
0	44015	2930.07	1800.07
0	44016	2930.07	1700.07
0	44017	2930.07	1600.07
0	44018	2930.07	1500.07
0	44019	2930.07	1400.07
0	44020	2930.07	1300.07
0	44329	2940.07	2700.07
0	44330	2940.07	2600.07
0	44331	2940.07	2500.07
0	44332	2940.07	2400.07
0	44333	2940.07	2300.07
0	44334	2940.07	2200.07
0	44335	2940.07	2100.07
0	44336	2940.07	2000.07
0	44337	2940.07	1900.07
0	44338	2940.07	1800.07
0	44339	2940.07	1700.07
0	44340	2940.07	1600.07
0	44341	2940.07	1500.07
0	44342	2940.07	1400.07
0	44343	2940.07	1300.07
0	44652	2950.07	2700.07
0	44653	2950.07	2600.07
0	44654	2950.07	2500.07
0	44655	2950.07	2400.07
0	44656	2950.07	2300.07
0	44657	2950.07	2200.07
0	44658	2950.07	2100.07
0	44659	2950.07	2000.07
0	44660	2950.07	1900.07
0	44661	2950.07	1800.07
0	44662	2950.07	1700.07
0	44663	2950.07	1600.07
0	44664	2950.07	1500.07
0	44665	2950.07	1400.07
0	44666	2950.07	1300.07
0	45050	2958.07	2958.07
0	45051	2958.07	2948.07
0	45052	2958.07	2938.07
0	45053	2958.07	2928.07
0	45054	2958.07	2918.07
0	45055	2958.07	2908.07
0	45056	2958.07	2898.07
0	45057	2958.07	2888.07
0	45058	2958.07	2878.07
0	45059	2958.07	2868.07
0	45060	2958.07	2858.07
0	45061	2958.07	2848.07
0	45062	2958.07	2838.07
0	45063	2958.07	2828.07
0	45064	2958.07	2818.07
0	45065	2958.07	2808.07
0	45495	2960.07	2800.07
0	45496	2960.07	2700.07
0	45497	2960.07	2600.07
0	45498	2960.07	2500.07
0	45499	2960.07	2400.07
0	45500	2960.07	2300.07
0	45501	2960.07	2200.07
0	45502	2960.07	2100.07
0	45503	2960.07	2000.07
0	45504	2960.07	1900.07
0	45505	2960.07	1800.07
0	45506	2960.07	1700.07
0	45507	2960.07	1600.07
0	45508	2960.07	1500.07
0	45509	2960.07	1400.07
0	45510	2960.07	1300.07
0	45849	2970.07	2800.07
0	45850	2970.07	2700.07
0	45851	2970.07	2600.07
0	45852	2970.07	2500.07
0	45853	2970.07	2400.07
0	45854	2970.07	2300.07
0	45855	2970.07	2200.07
0	45856	2970.07	2100.07
0	45857	2970.07	2000.07
0	45858	2970.07	1900.07
0	45859	2970.07	1800.07
0	45860	2970.07	1700.07
0	45861	2970.07	1600.07
0	45862	2970.07	1500.07
0	45863	2970.07	1400.07
0	45864	2970.07	1300.07
0	46203	2980.07	2800.07
0	46204	2980.07	2700.07
0	46205	2980.07	2600.07
0	46206	2980.07	2500.07
0	46207	2980.07	2400.07
0	46208	2980.07	2300.07
0	46209	2980.07	2200.07
0	46210	2980.07	2100.07
0	46211	2980.07	2000.07
0	46212	2980.07	1900.07
0	46213	2980.07	1800.07
0	46214	2980.07	1700.07
0	46215	2980.07	1600.07
0	46216	2980.07	1500.07
0	46217	2980.07	1400.07
0	46218	2980.07	1300.07
0	46557	2990.07	2800.07
0	46558	2990.07	2700.07
0	46559	2990.07	2600.07
0	46560	2990.07	2500.07
0	46561	2990.07	2400.07
0	46562	2990.07	2300.07
0	46563	2990.07	2200.07
0	46564	2990.07	2100.07
0	46565	2990.07	2000.07
0	46566	2990.07	1900.07
0	46567	2990.07	1800.07
0	46568	2990.07	1700.07
0	46569	2990.07	1600.07
0	46570	2990.07	1500.07
0	46571	2990.07	1400.07
0	46572	2990.07	1300.07
0	46911	3000.07	2800.07
0	46912	3000.07	2700.07
0	46913	3000.07	2600.07
0	46914	3000.07	2500.07
0	46915	3000.07	2400.07
0	46916	3000.07	2300.07
0	46917	3000.07	2200.07
0	46918	3000.07	2100.07
0	46919	3000.07	2000.07
0	46920	3000.07	1900.07
0	46921	3000.07	1800.07
0	46922	3000.07	1700.07
0	46923	3000.07	1600.07
0	46924	3000.07	1500.07
0	46925	3000.07	1400.07
0	46926	3000.07	1300.07
0	47265	3010.07	2800.07
0	47266	3010.07	2700.07
0	47267	3010.07	2600.07
0	47268	3010.07	2500.07
0	47269	3010.07	2400.07
0	47270	3010.07	2300.07
0	47271	3010.07	2200.07
0	47272	3010.07	2100.07
0	47273	3010.07	2000.07
0	47274	3010.07	1900.07
0	47275	3010.07	1800.07
0	47276	3010.07	1700.07
0	47277	3010.07	1600.07
0	47278	3010.07	1500.07
0	47279	3010.07	1400.07
0	47280	3010.07	1300.07
0	47619	3020.07	2800.07
0	47620	3020.07	2700.07
0	47621	3020.07	2600.07
0	47622	3020.07	2500.07
0	47623	3020.07	2400.07
0	47624	3020.07	2300.07
0	47625	3020.07	2200.07
0	47626	3020.07	2100.07
0	47627	3020.07	2000.07
0	47628	3020.07	1900.07
0	47629	3020.07	1800.07
0	47630	3020.07	1700.07
0	47631	3020.07	1600.07
0	47632	3020.07	1500.07
0	47633	3020.07	1400.07
0	47634	3020.07	1300.07
0	47973	3030.07	2800.07
0	47974	3030.07	2700.07
0	47975	3030.07	2600.07
0	47976	3030.07	2500.07
0	47977	3030.07	2400.07
0	47978	3030.07	2300.07
0	47979	3030.07	2200.07
0	47980	3030.07	2100.07
0	47981	3030.07	2000.07
0	47982	3030.07	1900.07
0	47983	3030.07	1800.07
0	47984	3030.07	1700.07
0	47985	3030.07	1600.07
0	47986	3030.07	1500.07
0	47987	3030.07	1400.07
0	47988	3030.07	1300.07
0	48327	3040.07	2800.07
0	48328	3040.07	2700.07
0	48329	3040.07	2600.07
0	48330	3040.07	2500.07
0	48331	3040.07	2400.07
0	48332	3040.07	2300.07
0	48333	3040.07	2200.07
0	48334	3040.07	2100.07
0	48335	3040.07	2000.07
0	48336	3040.07	1900.07
0	48337	3040.07	1800.07
0	48338	3040.07	1700.07
0	48339	3040.07	1600.07
0	48340	3040.07	1500.07
0	48341	3040.07	1400.07
0	48342	3040.07	1300.07
0	48681	3050.07	2800.07
0	48682	3050.07	2700.07
0	48683	3050.07	2600.07
0	48684	3050.07	2500.07
0	48685	3050.07	2400.07
0	48686	3050.07	2300.07
0	48687	3050.07	2200.07
0	48688	3050.07	2100.07
0	48689	3050.07	2000.07
0	48690	3050.07	1900.07
0	48691	3050.07	1800.07
0	48692	3050.07	1700.07
0	48693	3050.07	1600.07
0	48694	3050.07	1500.07
0	48695	3050.07	1400.07
0	48696	3050.07	1300.07
0	49097	3058.07	3058.07
0	49098	3058.07	3048.07
0	49099	3058.07	3038.07
0	49100	3058.07	3028.07
0	49101	3058.07	3018.07
0	49102	3058.07	3008.07
0	49103	3058.07	2998.07
0	49104	3058.07	2988.07
0	49105	3058.07	2978.07
0	49106	3058.07	2968.07
0	49107	3058.07	2958.07
0	49108	3058.07	2948.07
0	49109	3058.07	2938.07
0	49110	3058.07	2928.07
0	49111	3058.07	2918.07
0	49112	3058.07	2908.07
0	49555	3060.07	2900.07
0	49556	3060.07	2800.07
0	49557	3060.07	2700.07
0	49558	3060.07	2600.07
0	49559	3060.07	2500.07
0	49560	3060.07	2400.07
0	49561	3060.07	2300.07
0	49562	3060.07	2200.07
0	49563	3060.07	2100.07
0	49564	3060.07	2000.07
0	49565	3060.07	1900.07
0	49566	3060.07	1800.07
0	49567	3060.07	1700.07
0	49568	3060.07	1600.07
0	49569	3060.07	1500.07
0	49570	3060.07	1400.07
0	49571	3060.07	1300.07
0	49940	3070.07	2900.07
0	49941	3070.07	2800.07
0	49942	3070.07	2700.07
0	49943	3070.07	2600.07
0	49944	3070.07	2500.07
0	49945	3070.07	2400.07
0	49946	3070.07	2300.07
0	49947	3070.07	2200.07
0	49948	3070.07	2100.07
0	49949	3070.07	2000.07
0	49950	3070.07	1900.07
0	49951	3070.07	1800.07
0	49952	3070.07	1700.07
0	49953	3070.07	1600.07
0	49954	3070.07	1500.07
0	49955	3070.07	1400.07
0	49956	3070.07	1300.07
0	50325	3080.07	2900.07
0	50326	3080.07	2800.07
0	50327	3080.07	2700.07
0	50328	3080.07	2600.07
0	50329	3080.07	2500.07
0	50330	3080.07	2400.07
0	50331	3080.07	2300.07
0	50332	3080.07	2200.07
0	50333	3080.07	2100.07
0	50334	3080.07	2000.07
0	50335	3080.07	1900.07
0	50336	3080.07	1800.07
0	50337	3080.07	1700.07
0	50338	3080.07	1600.07
0	50339	3080.07	1500.07
0	50340	3080.07	1400.07
0	50341	3080.07	1300.07
0	50710	3090.07	2900.07
0	50711	3090.07	2800.07
0	50712	3090.07	2700.07
0	50713	3090.07	2600.07
0	50714	3090.07	2500.07
0	50715	3090.07	2400.07
0	50716	3090.07	2300.07
0	50717	3090.07	2200.07
0	50718	3090.07	2100.07
0	50719	3090.07	2000.07
0	50720	3090.07	1900.07
0	50721	3090.07	1800.07
0	50722	3090.07	1700.07
0	50723	3090.07	1600.07
0	50724	3090.07	1500.07
0	50725	3090.07	1400.07
0	50726	3090.07	1300.07
0	51095	3100.07	2900.07
0	51096	3100.07	2800.07
0	51097	3100.07	2700.07
0	51098	3100.07	2600.07
0	51099	3100.07	2500.07
0	51100	3100.07	2400.07
0	51101	3100.07	2300.07
0	51102	3100.07	2200.07
0	51103	3100.07	2100.07
0	51104	3100.07	2000.07
0	51105	3100.07	1900.07
0	51106	3100.07	1800.07
0	51107	3100.07	1700.07
0	51108	3100.07	1600.07
0	51109	3100.07	1500.07
0	51110	3100.07	1400.07
0	51111	3100.07	1300.07
0	51480	3110.07	2900.07
0	51481	3110.07	2800.07
0	51482	3110.07	2700.07
0	51483	3110.07	2600.07
0	51484	3110.07	2500.07
0	51485	3110.07	2400.07
0	51486	3110.07	2300.07
0	51487	3110.07	2200.07
0	51488	3110.07	2100.07
0	51489	3110.07	2000.07
0	51490	3110.07	1900.07
0	51491	3110.07	1800.07
0	51492	3110.07	1700.07
0	51493	3110.07	1600.07
0	51494	3110.07	1500.07
0	51495	3110.07	1400.07
0	51496	3110.07	1300.07

