version 2
run General-0-20250112-09:57:56-82442
attr configname General
attr datetime 20250112-09:57:56
attr experiment General
attr inifile shaw.ini
attr iterationvars ""
attr iterationvarsf ""
attr measurement ""
attr network src.dtnsim
attr processid 82442
attr repetition 0
attr replication #0
attr resultdir results
attr runnumber 0
attr seedset 0
param dtnsim.central.contactsFile "\"contactPlan/shaw_contact1.txt\""
param dtnsim.central.contactIdsToDelete "\"4 11 12 18 22 25 28 29 30 32 37 40 41 44 45 49 53 54 55 58 60 61 66 71 73 78 79 84 85 89 91 92 97 110 114 116 120 122 124 130 133 143 145 148 157 164 168 171 184 185 186 190 193 195 201 207 208 211 212 214 217 218 224 227 229 232 233 238 248 250 253 255 257 258 263 264 265 266 267 268 274 276 280 283 285 287 295 297 299 306 310 317 319 320 321 325 326 328 333 337 338 340 342 345 346 347 355 361 362 367 374 377 378 385 387 394 395 396 405 407 412 421 426 428 430 433 435 436 438 442 446 448 451 452 454 460 466 467 471 473 474 480 481 488 490 495 500 502 503 504 506 509 511 512 513 527 528 530 538 540 542 545 546 547 549 554 557 562 566 568 570 571 573 574 575 584 585 588 589 590 594 600 601 602 605 606 616 617 620 627 629 630 633 641 642 643 646 647 657 658 661 662 671 673 681 688 689 691 693 708 710 712 715 717 725 728 735 736 737 739 743 745 750 751 758 759 761 763 770 772 773 779 781 784 786 787 791 792 796 798 802 803 804 805 808 809 811 813 814 817 825 827 828 829 830 837 839 842 844 846 853 854 858 861 866 868 869 871 880 884 885 886 892 894 895 897 898 899 906 909 911 913 922 929 930 931 936 943 944 947 948 952 978 985 991 996 997 998 999 1000\""
param dtnsim.central.faultsAware true
param dtnsim.nodesNumber 6
param dtnsim.node[1].icon "\"receiverdish\""
param dtnsim.node[2..5].icon "\"satellite\""
param dtnsim.node[6].icon "\"receiverdish\""
param dtnsim.node[*].dtn.routing "\"cgrModel350\""
param dtnsim.node[*].dtn.routingType "\"routeListType:allPaths-firstEnding,volumeAware:allContacts,extensionBlock:on,contactPlan:global\""
param dtnsim.node[1].app.enable true
param dtnsim.node[*].app.custodyTransfer true
param dtnsim.node[1].app.bundlesNumber "\"5000\""
param dtnsim.node[1].app.start "\"0\""
param dtnsim.node[1].app.destinationEid "\"6\""
param dtnsim.node[1].app.size "\"1500\""
param dtnsim.node[1].app.interval 0.2

vector 0 dtnsim.node[6].app appBundleReceivedDelayvec:vector ETV
attr interpolationmode none
attr source appBundleReceivedDelay
attr title "appBundleReceivedDelayvec, vector"
0	6182	60.4	60.4
0	6183	60.4	60.2
0	6184	60.4	60
0	6185	60.4	59.8
0	6186	60.4	59.6
0	6187	60.4	59.4
0	6188	60.4	59.2
0	6189	60.4	59
0	6190	60.4	58.8
0	6191	60.4	58.6
0	6192	60.4	58.4
0	6193	60.4	58.2
0	6194	60.4	58
0	6195	60.4	57.8
0	6196	60.4	57.6
0	6197	60.4	57.4
0	6198	60.4	57.2
0	6199	60.4	57
0	6200	60.4	56.8
0	6201	60.4	56.6
0	6202	60.4	56.4
0	6203	60.4	56.2
0	6204	60.4	56
0	6205	60.4	55.8
0	6206	60.4	55.6
0	6207	60.4	55.4
0	6208	60.4	55.2
0	6209	60.4	55
0	6210	60.4	54.8
0	6211	60.4	54.6
0	6212	60.4	54.4
0	6213	60.4	54.2
0	6214	60.4	54
0	6215	60.4	53.8
0	6216	60.4	53.6
0	6217	60.4	53.4
0	6218	60.4	53.2
0	6219	60.4	53
0	6220	60.4	52.8
0	6221	60.4	52.6
0	6222	60.4	52.4
0	6223	60.4	52.2
0	6224	60.4	52
0	6225	60.4	51.8
0	6226	60.4	51.6
0	6227	60.4	51.4
0	6228	60.4	51.2
0	6229	60.4	51
0	6230	60.4	50.8
0	6231	60.4	50.6
0	6232	60.4	50.4
0	6233	60.4	50.2
0	6234	60.4	50
0	6235	60.4	49.8
0	6236	60.4	49.6
0	6237	60.4	49.4
0	6238	60.4	49.2
0	6239	60.4	49
0	6240	60.4	48.8
0	6241	60.4	48.6
0	6242	60.4	48.4
0	6243	60.4	48.2
0	6244	60.4	48
0	6245	60.4	47.8
0	6246	60.4	47.6
0	6247	60.4	47.4
0	6248	60.4	47.2
0	6249	60.4	47
0	6250	60.4	46.8
0	6251	60.4	46.6
0	6252	60.4	46.4
0	6253	60.4	46.2
0	6254	60.4	46
0	6255	60.4	45.8
0	6256	60.4	45.6
0	6257	60.4	45.4
0	6258	60.4	45.2
0	6259	60.4	45
0	6260	60.4	44.8
0	6261	60.4	44.6
0	6262	60.4	44.4
0	6263	60.4	44.2
0	6264	60.4	44
0	6265	60.4	43.8
0	6266	60.4	43.6
0	6267	60.4	43.4
0	6268	60.4	43.2
0	6269	60.4	43
0	6270	60.4	42.8
0	6271	60.4	42.6
0	6272	60.4	42.4
0	6273	60.4	42.2
0	6274	60.4	42
0	6275	60.4	41.8
0	6276	60.4	41.6
0	6277	60.4	41.4
0	6278	60.4	41.2
0	6279	60.4	41
0	6280	60.4	40.8
0	6281	60.4	40.6
0	6282	60.4	40.4
0	6283	60.4	40.2
0	6284	60.4	40
0	6285	60.4	39.8
0	6286	60.4	39.6
0	6287	60.4	39.4
0	6288	60.4	39.2
0	6289	60.4	39
0	6290	60.4	38.8
0	6291	60.4	38.6
0	6292	60.4	38.4
0	6293	60.4	38.2
0	6294	60.4	38
0	6295	60.4	37.8
0	6296	60.4	37.6
0	6297	60.4	37.4
0	6298	60.4	37.2
0	6299	60.4	37
0	6300	60.4	36.8
0	6301	60.4	36.6
0	6302	60.4	36.4
0	6303	60.4	36.2
0	6304	60.4	36
0	6305	60.4	35.8
0	6306	60.4	35.6
0	6307	60.4	35.4
0	6308	60.4	35.2
0	6309	60.4	35
0	6310	60.4	34.8
0	6311	60.4	34.6
0	6312	60.4	34.4
0	6313	60.4	34.2
0	6314	60.4	34
0	6315	60.4	33.8
0	6316	60.4	33.6
0	6317	60.4	33.4
0	6318	60.4	33.2
0	6319	60.4	33
0	6320	60.4	32.8
0	6321	60.4	32.6
0	6322	60.4	32.4
0	6323	60.4	32.2
0	6324	60.4	32
0	6325	60.4	31.8
0	6326	60.4	31.6
0	6327	60.4	31.4
0	6328	60.4	31.2
0	6329	60.4	31
0	6330	60.4	30.8
0	6331	60.4	30.6
0	6332	60.4	30.4
0	6333	60.4	30.2
0	6334	60.4	30
0	6335	60.4	29.8
0	6336	60.4	29.6
0	6337	60.4	29.4
0	6338	60.4	29.2
0	6339	60.4	29
0	6340	60.4	28.8
0	6341	60.4	28.6
0	6342	60.4	28.4
0	6343	60.4	28.2
0	6344	60.4	28
0	6345	60.4	27.8
0	6346	60.4	27.6
0	6347	60.4	27.4
0	6348	60.4	27.2
0	6349	60.4	27
0	6350	60.4	26.8
0	6351	60.4	26.6
0	6352	60.4	26.4
0	6353	60.4	26.2
0	6354	60.4	26
0	6355	60.4	25.8
0	6356	60.4	25.6
0	6357	60.4	25.4
0	6358	60.4	25.2
0	6359	60.4	25
0	6360	60.4	24.8
0	6361	60.4	24.6
0	6362	60.4	24.4
0	6363	60.4	24.2
0	6364	60.4	24
0	6365	60.4	23.8
0	6366	60.4	23.6
0	6367	60.4	23.4
0	6368	60.4	23.2
0	6369	60.4	23
0	6370	60.4	22.8
0	6371	60.4	22.6
0	6372	60.4	22.4
0	6373	60.4	22.2
0	6374	60.4	22
0	6375	60.4	21.8
0	6376	60.4	21.6
0	6377	60.4	21.4
0	6378	60.4	21.2
0	6379	60.4	21
0	6380	60.4	20.8
0	6381	60.4	20.6
0	6382	60.4	20.4
0	6383	60.4	20.2
0	6384	60.4	20
0	6385	60.4	19.8
0	6386	60.4	19.6
0	6387	60.4	19.4
0	6388	60.4	19.2
0	6389	60.4	19
0	6390	60.4	18.8
0	6391	60.4	18.6
0	6392	60.4	18.4
0	6393	60.4	18.2
0	6394	60.4	18
0	6395	60.4	17.8
0	6396	60.4	17.6
0	6397	60.4	17.4
0	6398	60.4	17.2
0	6399	60.4	17
0	6400	60.4	16.8
0	6401	60.4	16.6
0	6402	60.4	16.4
0	6403	60.4	16.2
0	6404	60.4	16
0	6405	60.4	15.8
0	6406	60.4	15.6
0	6407	60.4	15.4
0	6408	60.4	15.2
0	6409	60.4	15
0	6410	60.4	14.8
0	6411	60.4	14.6
0	6412	60.4	14.4
0	6413	60.4	14.2
0	6414	60.4	14
0	6415	60.4	13.8
0	6416	60.4	13.6
0	6417	60.4	13.4
0	6418	60.4	13.2
0	6419	60.4	13
0	6420	60.4	12.8
0	6421	60.4	12.6
0	6422	60.4	12.4
0	6423	60.4	12.2
0	6424	60.4	12
0	6425	60.4	11.8
0	6426	60.4	11.6
0	6427	60.4	11.4
0	6428	60.4	11.2
0	6429	60.4	11
0	6430	60.4	10.8
0	6431	60.4	10.6
0	6432	60.4	10.4
0	6433	60.4	10.2
0	6434	60.4	10
0	6435	60.4	9.8
0	6436	60.4	9.6
0	6437	60.4	9.4
0	6438	60.4	9.2
0	6439	60.4	9
0	6440	60.4	8.8
0	6441	60.4	8.6
0	6442	60.4	8.4
0	6443	60.4	8.2
0	6444	60.4	8
0	6445	60.4	7.8
0	6446	60.4	7.6
0	6447	60.4	7.4
0	6448	60.4	7.2
0	6449	60.4	7
0	6450	60.4	6.8
0	6451	60.4	6.6
0	14739	92.1	38.1
0	14740	92.1	37.9
0	14741	92.1	37.7
0	14742	92.1	37.5
0	14743	92.1	37.3
0	14744	92.1	37.1
0	14745	92.1	36.9
0	14746	92.1	36.7
0	14747	92.1	36.5
0	14748	92.1	36.3
0	14749	92.1	36.1
0	14750	92.1	35.9
0	14751	92.1	35.7
0	14752	92.1	35.5
0	14753	92.1	35.3
0	14754	92.1	35.1
0	14755	92.1	34.9
0	14756	92.1	34.7
0	14757	92.1	34.5
0	14758	92.1	34.3
0	14759	92.1	34.1
0	14760	92.1	33.9
0	14761	92.1	33.7
0	14762	92.1	33.5
0	14763	92.1	33.3
0	14764	92.1	33.1
0	14765	92.1	32.9
0	14766	92.1	32.7
0	14767	92.1	32.5
0	14768	92.1	32.3
0	14769	92.1	32.1
0	14770	92.1	31.9
0	14771	92.1	31.7
0	14772	92.1	31.5
0	14773	92.1	31.3
0	14774	92.1	31.1
0	14775	92.1	30.9
0	14776	92.1	30.7
0	14777	92.1	30.5
0	14778	92.1	30.3
0	14779	92.1	30.1
0	14780	92.1	29.9
0	14781	92.1	29.7
0	14782	92.1	29.5
0	14783	92.1	29.3
0	14784	92.1	29.1
0	14785	92.1	28.9
0	14786	92.1	28.7
0	14787	92.1	28.5
0	14788	92.1	28.3
0	14789	92.1	28.1
0	14790	92.1	27.9
0	14791	92.1	27.7
0	14792	92.1	27.5
0	14793	92.1	27.3
0	14794	92.1	27.1
0	14795	92.1	26.9
0	14796	92.1	26.7
0	14797	92.1	26.5
0	14798	92.1	26.3
0	14799	92.1	26.1
0	14800	92.1	25.9
0	14801	92.1	25.7
0	14802	92.1	25.5
0	14803	92.1	25.3
0	14804	92.1	25.1
0	14805	92.1	24.9
0	14806	92.1	24.7
0	14807	92.1	24.5
0	14808	92.1	24.3
0	14809	92.1	24.1
0	14810	92.1	23.9
0	14811	92.1	23.7
0	14812	92.1	23.5
0	14813	92.1	23.3
0	14814	92.1	23.1
0	14815	92.1	22.9
0	14816	92.1	22.7
0	14817	92.1	22.5
0	14818	92.1	22.3
0	14819	92.1	22.1
0	14820	92.1	21.9
0	14821	92.1	21.7
0	14822	92.1	21.5
0	14823	92.1	21.3
0	14824	92.1	21.1
0	14825	92.1	20.9
0	14826	92.1	20.7
0	14827	92.1	20.5
0	14828	92.1	20.3
0	14829	92.1	20.1
0	14830	92.1	19.9
0	14831	92.1	19.7
0	14832	92.1	19.5
0	14833	92.1	19.3
0	14834	92.1	19.1
0	14835	92.1	18.9
0	14836	92.1	18.7
0	14837	92.1	18.5
0	14838	92.1	18.3
0	14839	92.1	18.1
0	14840	92.1	17.9
0	14841	92.1	17.7
0	14842	92.1	17.5
0	14843	92.1	17.3
0	14844	92.1	17.1
0	14845	92.1	16.9
0	14846	92.1	16.7
0	14847	92.1	16.5
0	14848	92.1	16.3
0	14849	92.1	16.1
0	14850	92.1	15.9
0	14851	92.1	15.7
0	14852	92.1	15.5
0	14853	92.1	15.3
0	14854	92.1	15.1
0	14855	92.1	14.9
0	14856	92.1	14.7
0	14857	92.1	14.5
0	14858	92.1	14.3
0	14859	92.1	14.1
0	14860	92.1	13.9
0	14861	92.1	13.7
0	14862	92.1	13.5
0	14863	92.1	13.3
0	14864	92.1	13.1
0	14865	92.1	12.9
0	14866	92.1	12.7
0	14867	92.1	12.5
0	14868	92.1	12.3
0	14869	92.1	12.1
0	14870	92.1	11.9
0	14871	92.1	11.7
0	14872	92.1	11.5
0	14873	92.1	11.3
0	14874	92.1	11.1
0	14875	92.1	10.9
0	14876	92.1	10.7
0	14877	92.1	10.5
0	14878	92.1	10.3
0	14879	92.1	10.1
0	14880	92.1	9.9
0	14881	92.1	9.7
0	14882	92.1	9.5
0	14883	92.1	9.3
0	14884	92.1	9.1
0	14885	92.1	8.9
0	14886	92.1	8.7
0	14887	92.1	8.5
0	14888	92.1	8.3
0	17599	100.1	16.1
0	17600	100.1	15.9
0	17601	100.1	15.7
0	17602	100.1	15.5
0	17603	100.1	15.3
0	17604	100.1	15.1
0	17605	100.1	14.9
0	17606	100.1	14.7
0	17607	100.1	14.5
0	17608	100.1	14.3
0	17609	100.1	14.1
0	17610	100.1	13.9
0	17611	100.1	13.7
0	17612	100.1	13.5
0	17613	100.1	13.3
0	17614	100.1	13.1
0	17615	100.1	12.9
0	17616	100.1	12.7
0	17617	100.1	12.5
0	17618	100.1	12.3
0	17619	100.1	12.1
0	17620	100.1	11.9
0	17621	100.1	11.7
0	17622	100.1	11.5
0	17623	100.1	11.3
0	17624	100.1	11.1
0	17625	100.1	10.9
0	17626	100.1	10.7
0	17627	100.1	10.5
0	17628	100.1	10.3
0	17629	100.1	10.1
0	17630	100.1	9.9
0	17631	100.1	9.7
0	17632	100.1	9.5
0	17633	100.1	9.3
0	17634	100.1	9.1
0	17635	100.1	8.9
0	17636	100.1	8.7
0	17637	100.1	8.5
0	17638	100.1	8.3
0	17639	100.1	8.1
0	17640	100.1	7.9
0	17641	100.1	7.7
0	17642	100.1	7.5
0	17643	100.1	7.3
0	17644	100.1	7.1
0	17645	100.1	6.9
0	17646	100.1	6.7
0	17647	100.1	6.5
0	17648	100.1	6.3
0	17649	100.1	6.1
0	17650	100.1	5.9
0	17651	100.1	5.7
0	17652	100.1	5.5
0	17653	100.1	5.3
0	17654	100.1	5.1
0	17655	100.1	4.9
0	17656	100.1	4.7
0	17657	100.1	4.5
0	17658	100.1	4.3
0	17659	100.1	4.1
0	17660	100.1	3.9
0	17661	100.1	3.7
0	17662	100.1	3.5
0	17663	100.1	3.3
0	17664	100.1	3.1
0	17665	100.1	2.9
0	17666	100.1	2.7
0	17667	100.1	2.5
0	17668	100.1	2.3
0	17669	100.1	2.1
0	17670	100.1	1.9
0	17671	100.1	1.7
0	17672	100.1	1.5
0	17694	100.3	1.5
0	17716	100.5	1.5
0	17738	100.7	1.5
0	17760	100.9	1.5
0	18536	101.1	1.5
0	18912	101.3	1.5
0	18925	101.4	1.4
0	18947	101.6	1.4
0	18969	101.8	1.4
0	18994	102	1.4
0	19263	102.2	1.4
0	19291	102.4	1.4
0	19319	102.6	1.4
0	19347	102.8	1.4
0	19377	103	1.4
0	19550	103.2	1.4
0	19557	103.3	1.3
0	19568	103.5	1.3
0	19579	103.7	1.3
0	19590	103.9	1.3
0	21837	109.4	6.6
0	24278	118.4	15.4
0	24279	118.4	15.2
0	24280	118.4	15
0	24281	118.4	14.8
0	24282	118.4	14.6
0	24283	118.4	14.4
0	24284	118.4	14.2
0	24285	118.4	14
0	24286	118.4	13.8
0	24287	118.4	13.6
0	24288	118.4	13.4
0	24289	118.4	13.2
0	24290	118.4	13
0	24291	118.4	12.8
0	24292	118.4	12.6
0	24293	118.4	12.4
0	24294	118.4	12.2
0	24295	118.4	12
0	24296	118.4	11.8
0	24297	118.4	11.6
0	24298	118.4	11.4
0	24299	118.4	11.2
0	24300	118.4	11
0	24301	118.4	10.8
0	24302	118.4	10.6
0	24303	118.4	10.4
0	24304	118.4	10.2
0	24305	118.4	10
0	24306	118.4	9.8
0	24307	118.4	9.6
0	24308	118.4	9.4
0	24309	118.4	9.2
0	24310	118.4	9
0	24311	118.4	8.8
0	24312	118.4	8.6
0	24313	118.4	8.4
0	24314	118.4	8.2
0	24315	118.4	8
0	24316	118.4	7.8
0	24317	118.4	7.6
0	24318	118.4	7.4
0	24319	118.4	7.2
0	24320	118.4	7
0	24321	118.4	6.8
0	24322	118.4	6.6
0	24323	118.4	6.4
0	24324	118.4	6.2
0	24325	118.4	6
0	24326	118.4	5.8
0	24327	118.4	5.6
0	24328	118.4	5.4
0	24329	118.4	5.2
0	24330	118.4	5
0	24331	118.4	4.8
0	24332	118.4	4.6
0	24333	118.4	4.4
0	24334	118.4	4.2
0	24335	118.4	4
0	24336	118.4	3.8
0	24337	118.4	3.6
0	24338	118.4	3.4
0	24339	118.4	3.2
0	24340	118.4	3
0	24341	118.4	2.8
0	24342	118.4	2.6
0	24343	118.4	2.4
0	24344	118.4	2.2
0	24345	118.4	2
0	24346	118.4	1.8
0	24347	118.4	1.6
0	24348	118.4	1.4
0	24376	118.6	1.4
0	24404	118.8	1.4
0	24433	119	1.4
0	28538	136.6	17.6
0	28539	136.6	17.4
0	28540	136.6	17.2
0	28541	136.6	17
0	28542	136.6	16.8
0	28543	136.6	16.6
0	28544	136.6	16.4
0	28545	136.6	16.2
0	28546	136.6	16
0	28547	136.6	15.8
0	28548	136.6	15.6
0	28549	136.6	15.4
0	28550	136.6	15.2
0	28551	136.6	15
0	28552	136.6	14.8
0	28553	136.6	14.6
0	28554	136.6	14.4
0	28555	136.6	14.2
0	28556	136.6	14
0	28557	136.6	13.8
0	28558	136.6	13.6
0	28559	136.6	13.4
0	28560	136.6	13.2
0	28561	136.6	13
0	28562	136.6	12.8
0	28563	136.6	12.6
0	28564	136.6	12.4
0	28565	136.6	12.2
0	28566	136.6	12
0	28567	136.6	11.8
0	28568	136.6	11.6
0	28569	136.6	11.4
0	28570	136.6	11.2
0	28571	136.6	11
0	28572	136.6	10.8
0	28573	136.6	10.6
0	28574	136.6	10.4
0	28575	136.6	10.2
0	28576	136.6	10
0	28577	136.6	9.8
0	28578	136.6	9.6
0	28579	136.6	9.4
0	28580	136.6	9.2
0	28581	136.6	9
0	28582	136.6	8.8
0	28583	136.6	8.6
0	28584	136.6	18.8
0	28585	136.6	18.6
0	28586	136.6	18.4
0	28587	136.6	18.2
0	28588	136.6	18
0	28589	136.6	17.8
0	28590	136.6	8.4
0	28591	136.6	8.2
0	28592	136.6	8
0	28593	136.6	7.8
0	28594	136.6	7.6
0	28595	136.6	7.4
0	28596	136.6	7.2
0	28597	136.6	7
0	28598	136.6	6.8
0	28599	136.6	6.6
0	28600	136.6	6.4
0	28601	136.6	6.2
0	28602	136.6	6
0	28603	136.6	5.8
0	28604	136.6	5.6
0	28605	136.6	5.4
0	28606	136.6	5.2
0	28607	136.6	5
0	28608	136.6	4.8
0	28609	136.6	4.6
0	28610	136.6	4.4
0	28611	136.6	4.2
0	28612	136.6	4
0	28613	136.6	3.8
0	28614	136.6	3.6
0	28615	136.6	3.4
0	28616	136.6	3.2
0	28617	136.6	3
0	28618	136.6	2.8
0	28619	136.6	2.6
0	28620	136.6	2.4
0	28621	136.6	2.2
0	28622	136.6	2
0	28623	136.6	1.8
0	28624	136.6	1.6
0	28656	136.8	1.6
0	28689	137	1.6
0	28753	137.2	1.6
0	28791	137.4	1.6
0	28829	137.6	1.6
0	28867	137.8	1.6
0	28903	138	1.6
0	30720	138.2	1.6
0	30772	138.4	1.6
0	30824	138.6	1.6
0	30876	138.8	1.6
0	30930	139	1.6
0	30980	139.2	1.6
0	32628	154.1	16.3
0	32629	154.1	16.1
0	32630	154.1	15.9
0	32631	154.1	15.7
0	32632	154.1	15.5
0	32633	154.1	15.3
0	32634	154.1	15.1
0	32635	154.1	14.9
0	32636	154.1	14.7
0	32637	154.1	14.5
0	32638	154.1	14.3
0	32639	154.1	14.1
0	32640	154.1	13.9
0	32641	154.1	13.7
0	32642	154.1	13.5
0	32643	154.1	13.3
0	32644	154.1	13.1
0	32645	154.1	12.9
0	32646	154.1	12.7
0	32647	154.1	12.5
0	32648	154.1	12.3
0	32649	154.1	12.1
0	32650	154.1	11.9
0	32651	154.1	11.7
0	32652	154.1	11.5
0	32653	154.1	11.3
0	43058	212.1	69.1
0	43059	212.1	68.9
0	43060	212.1	68.7
0	43061	212.1	68.5
0	43062	212.1	68.3
0	43063	212.1	68.1
0	43064	212.1	67.9
0	43065	212.1	67.7
0	43066	212.1	67.5
0	43067	212.1	67.3
0	43068	212.1	67.1
0	43069	212.1	66.9
0	43070	212.1	66.7
0	43071	212.1	66.5
0	43072	212.1	66.3
0	43073	212.1	66.1
0	43074	212.1	65.9
0	43075	212.1	65.7
0	43076	212.1	65.5
0	43077	212.1	65.3
0	43078	212.1	65.1
0	43079	212.1	64.9
0	43080	212.1	64.7
0	43081	212.1	64.5
0	43082	212.1	64.3
0	43083	212.1	64.1
0	43084	212.1	63.9
0	43085	212.1	63.7
0	43086	212.1	63.5
0	43087	212.1	63.3
0	43088	212.1	63.1
0	43089	212.1	62.9
0	43090	212.1	62.7
0	43091	212.1	62.5
0	43092	212.1	62.3
0	43093	212.1	62.1
0	43094	212.1	61.9
0	43095	212.1	61.7
0	43096	212.1	61.5
0	43097	212.1	61.3
0	43098	212.1	61.1
0	43099	212.1	60.9
0	43100	212.1	60.7
0	43101	212.1	60.5
0	43102	212.1	60.3
0	43103	212.1	60.1
0	43104	212.1	59.9
0	43105	212.1	59.7
0	43106	212.1	59.5
0	43107	212.1	59.3
0	43108	212.1	59.1
0	43109	212.1	58.9
0	43110	212.1	58.7
0	43111	212.1	58.5
0	43112	212.1	58.3
0	43113	212.1	58.1
0	43114	212.1	57.9
0	43115	212.1	57.7
0	43116	212.1	57.5
0	43117	212.1	57.3
0	43118	212.1	57.1
0	43119	212.1	56.9
0	43120	212.1	56.7
0	43121	212.1	56.5
0	43122	212.1	56.3
0	43123	212.1	56.1
0	43124	212.1	55.9
0	43125	212.1	55.7
0	43126	212.1	55.5
0	43127	212.1	55.3
0	43128	212.1	55.1
0	43129	212.1	54.9
0	43130	212.1	54.7
0	43131	212.1	54.5
0	43132	212.1	54.3
0	43133	212.1	54.1
0	43134	212.1	53.9
0	43135	212.1	53.7
0	43136	212.1	53.5
0	43137	212.1	53.3
0	43138	212.1	53.1
0	43139	212.1	52.9
0	43140	212.1	52.7
0	43141	212.1	52.5
0	43142	212.1	52.3
0	43143	212.1	52.1
0	43144	212.1	51.9
0	43145	212.1	51.7
0	43146	212.1	51.5
0	43147	212.1	51.3
0	43148	212.1	51.1
0	43149	212.1	50.9
0	43150	212.1	50.7
0	43151	212.1	50.5
0	43152	212.1	50.3
0	43153	212.1	50.1
0	43154	212.1	49.9
0	43155	212.1	49.7
0	43156	212.1	49.5
0	43157	212.1	49.3
0	43158	212.1	49.1
0	43159	212.1	48.9
0	43160	212.1	48.7
0	43161	212.1	48.5
0	43162	212.1	48.3
0	43163	212.1	48.1
0	43164	212.1	47.9
0	43165	212.1	47.7
0	43166	212.1	47.5
0	43167	212.1	47.3
0	43168	212.1	47.1
0	43169	212.1	46.9
0	43170	212.1	46.7
0	43171	212.1	46.5
0	43172	212.1	46.3
0	43173	212.1	46.1
0	43174	212.1	45.9
0	43175	212.1	45.7
0	43176	212.1	45.5
0	43177	212.1	45.3
0	43178	212.1	45.1
0	43179	212.1	44.9
0	43180	212.1	44.7
0	43181	212.1	44.5
0	43182	212.1	44.3
0	43183	212.1	44.1
0	43184	212.1	43.9
0	43185	212.1	43.7
0	43186	212.1	43.5
0	43187	212.1	43.3
0	43188	212.1	43.1
0	43189	212.1	42.9
0	43190	212.1	42.7
0	43191	212.1	42.5
0	43192	212.1	42.3
0	43193	212.1	42.1
0	43194	212.1	41.9
0	43195	212.1	41.7
0	43196	212.1	41.5
0	43197	212.1	41.3
0	43198	212.1	41.1
0	43199	212.1	40.9
0	43200	212.1	40.7
0	43201	212.1	40.5
0	43202	212.1	40.3
0	43203	212.1	40.1
0	43204	212.1	39.9
0	43205	212.1	39.7
0	43206	212.1	39.5
0	43207	212.1	39.3
0	43208	212.1	39.1
0	43209	212.1	38.9
0	43210	212.1	38.7
0	43211	212.1	38.5
0	43212	212.1	38.3
0	43213	212.1	38.1
0	43214	212.1	37.9
0	43215	212.1	37.7
0	43216	212.1	37.5
0	43217	212.1	37.3
0	43218	212.1	37.1
0	43219	212.1	36.9
0	43220	212.1	36.7
0	43221	212.1	36.5
0	43222	212.1	36.3
0	43223	212.1	36.1
0	43224	212.1	35.9
0	43225	212.1	35.7
0	43226	212.1	35.5
0	43227	212.1	35.3
0	43228	212.1	35.1
0	43229	212.1	34.9
0	43230	212.1	34.7
0	43231	212.1	34.5
0	43232	212.1	34.3
0	43233	212.1	34.1
0	43234	212.1	33.9
0	43235	212.1	33.7
0	43236	212.1	33.5
0	43237	212.1	33.3
0	60678	302.1	123.1
0	60679	302.1	122.9
0	60680	302.1	122.7
0	60681	302.1	122.5
0	60682	302.1	122.3
0	60683	302.1	122.1
0	60684	302.1	121.9
0	60685	302.1	121.7
0	60686	302.1	121.5
0	60687	302.1	121.3
0	60688	302.1	121.1
0	60689	302.1	120.9
0	60690	302.1	120.7
0	60691	302.1	120.5
0	60692	302.1	120.3
0	60693	302.1	120.1
0	60694	302.1	119.9
0	60695	302.1	119.7
0	60696	302.1	119.5
0	60697	302.1	119.3
0	60698	302.1	119.1
0	60699	302.1	118.9
0	60700	302.1	118.7
0	60701	302.1	118.5
0	60702	302.1	118.3
0	60703	302.1	118.1
0	60704	302.1	117.9
0	60705	302.1	117.7
0	60706	302.1	117.5
0	60707	302.1	117.3
0	60708	302.1	117.1
0	60709	302.1	116.9
0	60710	302.1	116.7
0	60711	302.1	116.5
0	60712	302.1	116.3
0	60713	302.1	116.1
0	60714	302.1	115.9
0	60715	302.1	115.7
0	60716	302.1	115.5
0	60717	302.1	115.3
0	60718	302.1	115.1
0	60719	302.1	114.9
0	60720	302.1	114.7
0	60721	302.1	114.5
0	60722	302.1	114.3
0	60723	302.1	114.1
0	60724	302.1	113.9
0	60725	302.1	113.7
0	60726	302.1	113.5
0	60727	302.1	113.3
0	60728	302.1	113.1
0	60729	302.1	112.9
0	60730	302.1	112.7
0	60731	302.1	112.5
0	60732	302.1	112.3
0	60733	302.1	112.1
0	60734	302.1	111.9
0	60735	302.1	111.7
0	60736	302.1	111.5
0	60737	302.1	111.3
0	60738	302.1	111.1
0	60739	302.1	110.9
0	60740	302.1	110.7
0	60741	302.1	110.5
0	60742	302.1	110.3
0	60743	302.1	110.1
0	60744	302.1	109.9
0	60745	302.1	109.7
0	60746	302.1	109.5
0	60747	302.1	109.3
0	60748	302.1	109.1
0	60749	302.1	108.9
0	60750	302.1	108.7
0	60751	302.1	108.5
0	60752	302.1	108.3
0	60753	302.1	108.1
0	60754	302.1	107.9
0	60755	302.1	107.7
0	60756	302.1	107.5
0	60757	302.1	107.3
0	60758	302.1	107.1
0	60759	302.1	106.9
0	60760	302.1	106.7
0	60761	302.1	106.5
0	60762	302.1	106.3
0	60763	302.1	106.1
0	60764	302.1	105.9
0	60765	302.1	105.7
0	60766	302.1	105.5
0	60767	302.1	105.3
0	60768	302.1	105.1
0	60769	302.1	104.9
0	60770	302.1	104.7
0	60771	302.1	104.5
0	60772	302.1	104.3
0	60773	302.1	104.1
0	60774	302.1	103.9
0	60775	302.1	103.7
0	60776	302.1	103.5
0	60777	302.1	103.3
0	60778	302.1	103.1
0	60779	302.1	102.9
0	60780	302.1	102.7
0	60781	302.1	102.5
0	60782	302.1	102.3
0	60783	302.1	102.1
0	60784	302.1	101.9
0	60785	302.1	101.7
0	60786	302.1	101.5
0	60787	302.1	101.3
0	60788	302.1	101.1
0	60789	302.1	100.9
0	60790	302.1	100.7
0	60791	302.1	100.5
0	60792	302.1	100.3
0	60793	302.1	100.1
0	60794	302.1	99.9
0	60795	302.1	99.7
0	60796	302.1	99.5
0	60797	302.1	99.3
0	60798	302.1	99.1
0	60799	302.1	98.9
0	60800	302.1	98.7
0	60801	302.1	98.5
0	60802	302.1	98.3
0	60803	302.1	98.1
0	60804	302.1	97.9
0	60805	302.1	97.7
0	60806	302.1	97.5
0	60807	302.1	97.3
0	60808	302.1	97.1
0	60809	302.1	96.9
0	60810	302.1	96.7
0	60811	302.1	96.5
0	60812	302.1	96.3
0	60813	302.1	96.1
0	60814	302.1	95.9
0	60815	302.1	95.7
0	60816	302.1	95.5
0	60817	302.1	95.3
0	60818	302.1	95.1
0	60819	302.1	94.9
0	60820	302.1	94.7
0	60821	302.1	94.5
0	60822	302.1	94.3
0	60823	302.1	94.1
0	60824	302.1	93.9
0	60825	302.1	93.7
0	60826	302.1	93.5
0	60827	302.1	93.3
0	60828	302.1	93.1
0	60829	302.1	92.9
0	60830	302.1	92.7
0	60831	302.1	92.5
0	60832	302.1	92.3
0	60833	302.1	92.1
0	60834	302.1	91.9
0	60835	302.1	91.7
0	60836	302.1	91.5
0	60837	302.1	91.3
0	60838	302.1	91.1
0	60839	302.1	90.9
0	60840	302.1	90.7
0	60841	302.1	90.5
0	60842	302.1	90.3
0	60843	302.1	90.1
0	60844	302.1	89.9
0	60845	302.1	89.7
0	60846	302.1	89.5
0	60847	302.1	89.3
0	60848	302.1	89.1
0	60849	302.1	88.9
0	60850	302.1	88.7
0	60851	302.1	88.5
0	60852	302.1	88.3
0	60853	302.1	88.1
0	60854	302.1	87.9
0	60855	302.1	87.7
0	60856	302.1	87.5
0	60857	302.1	87.3
0	60858	302.1	87.1
0	60859	302.1	86.9
0	60860	302.1	86.7
0	60861	302.1	86.5
0	60862	302.1	86.3
0	60863	302.1	86.1
0	60864	302.1	85.9
0	60865	302.1	85.7
0	60866	302.1	85.5
0	60867	302.1	85.3
0	60868	302.1	85.1
0	60869	302.1	84.9
0	60870	302.1	84.7
0	60871	302.1	84.5
0	60872	302.1	84.3
0	60873	302.1	84.1
0	60874	302.1	83.9
0	60875	302.1	83.7
0	60876	302.1	83.5
0	60877	302.1	83.3
0	60878	302.1	83.1
0	60879	302.1	82.9
0	60880	302.1	82.7
0	60881	302.1	82.5
0	60882	302.1	82.3
0	60883	302.1	82.1
0	60884	302.1	81.9
0	60885	302.1	81.7
0	60886	302.1	81.5
0	60887	302.1	81.3
0	60888	302.1	81.1
0	60889	302.1	80.9
0	60890	302.1	80.7
0	60891	302.1	80.5
0	60892	302.1	80.3
0	60893	302.1	80.1
0	60894	302.1	79.9
0	60895	302.1	79.7
0	60896	302.1	79.5
0	60897	302.1	79.3
0	60898	302.1	79.1
0	60899	302.1	78.9
0	60900	302.1	78.7
0	60901	302.1	78.5
0	60902	302.1	78.3
0	60903	302.1	78.1
0	60904	302.1	77.9
0	60905	302.1	77.7
0	60906	302.1	77.5
0	60907	302.1	77.3
0	60908	302.1	77.1
0	60909	302.1	76.9
0	60910	302.1	76.7
0	60911	302.1	76.5
0	60912	302.1	76.3
0	60913	302.1	76.1
0	60914	302.1	75.9
0	60915	302.1	75.7
0	60916	302.1	75.5
0	60917	302.1	75.3
0	60918	302.1	75.1
0	60919	302.1	74.9
0	60920	302.1	74.7
0	60921	302.1	74.5
0	60922	302.1	74.3
0	60923	302.1	74.1
0	60924	302.1	73.9
0	60925	302.1	73.7
0	60926	302.1	73.5
0	60927	302.1	73.3
0	60928	302.1	73.1
0	60929	302.1	72.9
0	60930	302.1	72.7
0	60931	302.1	72.5
0	60932	302.1	72.3
0	60933	302.1	72.1
0	60934	302.1	71.9
0	60935	302.1	71.7
0	60936	302.1	71.5
0	60937	302.1	71.3
0	60938	302.1	71.1
0	60939	302.1	70.9
0	60940	302.1	70.7
0	60941	302.1	70.5
0	60942	302.1	70.3
0	60943	302.1	70.1
0	60944	302.1	69.9
0	60945	302.1	69.7
0	60946	302.1	69.5
0	60947	302.1	69.3
0	60948	302.1	69.1
0	60949	302.1	68.9
0	60950	302.1	68.7
0	60951	302.1	68.5
0	60952	302.1	68.3
0	60953	302.1	68.1
0	60954	302.1	67.9
0	60955	302.1	67.7
0	60956	302.1	67.5
0	60957	302.1	67.3
0	60958	302.1	67.1
0	60959	302.1	66.9
0	60960	302.1	66.7
0	60961	302.1	66.5
0	60962	302.1	66.3
0	60963	302.1	66.1
0	60964	302.1	65.9
0	60965	302.1	65.7
0	60966	302.1	65.5
0	60967	302.1	65.3
0	60968	302.1	65.1
0	60969	302.1	64.9
0	60970	302.1	64.7
0	60971	302.1	64.5
0	60972	302.1	64.3
0	60973	302.1	64.1
0	60974	302.1	63.9
0	60975	302.1	63.7
0	60976	302.1	63.5
0	60977	302.1	63.3
0	60978	302.1	63.1
0	60979	302.1	62.9
0	60980	302.1	62.7
0	60981	302.1	62.5
0	60982	302.1	62.3
0	60983	302.1	62.1
0	60984	302.1	61.9
0	60985	302.1	61.7
0	60986	302.1	61.5
0	60987	302.1	61.3
0	60988	302.1	61.1
0	60989	302.1	60.9
0	60990	302.1	60.7
0	60991	302.1	60.5
0	60992	302.1	60.3
0	60993	302.1	60.1
0	60994	302.1	59.9
0	60995	302.1	59.7
0	60996	302.1	59.5
0	60997	302.1	59.3
0	60998	302.1	59.1
0	60999	302.1	58.9
0	61000	302.1	58.7
0	61001	302.1	58.5
0	61002	302.1	58.3
0	61003	302.1	58.1
0	61004	302.1	57.9
0	61005	302.1	57.7
0	61006	302.1	57.5
0	61007	302.1	57.3
0	61008	302.1	57.1
0	61009	302.1	56.9
0	61010	302.1	56.7
0	61011	302.1	56.5
0	61012	302.1	56.3
0	61013	302.1	56.1
0	61014	302.1	55.9
0	61015	302.1	55.7
0	61016	302.1	55.5
0	61017	302.1	55.3
0	61018	302.1	55.1
0	61019	302.1	54.9
0	61020	302.1	54.7
0	61021	302.1	54.5
0	61022	302.1	54.3
0	61023	302.1	54.1
0	61024	302.1	53.9
0	61025	302.1	53.7
0	61026	302.1	53.5
0	61027	302.1	53.3
0	61028	302.1	53.1
0	61029	302.1	52.9
0	61030	302.1	52.7
0	61031	302.1	52.5
0	61032	302.1	52.3
0	61033	302.1	52.1
0	61034	302.1	51.9
0	61035	302.1	51.7
0	61036	302.1	51.5
0	61037	302.1	51.3
0	61038	302.1	51.1
0	61039	302.1	50.9
0	61040	302.1	50.7
0	61041	302.1	50.5
0	61042	302.1	50.3
0	61043	302.1	50.1
0	61044	302.1	49.9
0	61045	302.1	49.7
0	61046	302.1	49.5
0	61047	302.1	49.3
0	61048	302.1	49.1
0	61049	302.1	48.9
0	61050	302.1	48.7
0	61051	302.1	48.5
0	61052	302.1	48.3
0	61053	302.1	48.1
0	61054	302.1	47.9
0	61055	302.1	47.7
0	61056	302.1	47.5
0	61057	302.1	47.3
0	61058	302.1	47.1
0	61059	302.1	46.9
0	61060	302.1	46.7
0	61061	302.1	46.5
0	61062	302.1	46.3
0	61063	302.1	46.1
0	61064	302.1	45.9
0	61065	302.1	45.7
0	61066	302.1	45.5
0	61067	302.1	45.3
0	61068	302.1	45.1
0	61069	302.1	44.9
0	61070	302.1	44.7
0	61071	302.1	44.5
0	61072	302.1	44.3
0	61073	302.1	44.1
0	61074	302.1	43.9
0	61075	302.1	43.7
0	61076	302.1	43.5
0	61077	302.1	43.3
0	61078	302.1	43.1
0	61079	302.1	42.9
0	61080	302.1	42.7
0	61081	302.1	42.5
0	61082	302.1	42.3
0	61083	302.1	42.1
0	61084	302.1	41.9
0	61085	302.1	41.7
0	61086	302.1	41.5
0	61087	302.1	41.3
0	61088	302.1	41.1
0	61089	302.1	40.9
0	61090	302.1	40.7
0	61091	302.1	40.5
0	61092	302.1	40.3
0	61093	302.1	40.1
0	61094	302.1	39.9
0	61095	302.1	39.7
0	61096	302.1	39.5
0	61097	302.1	39.3
0	61098	302.1	39.1
0	61099	302.1	38.9
0	61100	302.1	38.7
0	61101	302.1	38.5
0	61102	302.1	38.3
0	61103	302.1	38.1
0	61104	302.1	37.9
0	61105	302.1	37.7
0	61106	302.1	37.5
0	61107	302.1	37.3
0	61108	302.1	37.1
0	61109	302.1	36.9
0	61110	302.1	36.7
0	61111	302.1	36.5
0	61112	302.1	36.3
0	61113	302.1	36.1
0	61114	302.1	35.9
0	61115	302.1	35.7
0	61116	302.1	35.5
0	61117	302.1	35.3
0	61118	302.1	35.1
0	61119	302.1	34.9
0	61120	302.1	34.7
0	61121	302.1	34.5
0	61122	302.1	34.3
0	61123	302.1	34.1
0	61124	302.1	33.9
0	61125	302.1	33.7
0	61126	302.1	33.5
0	61127	302.1	33.3
0	61128	302.1	33.1
0	61129	302.1	32.9
0	61130	302.1	32.7
0	61131	302.1	32.5
0	61132	302.1	32.3
0	61133	302.1	32.1
0	61134	302.1	31.9
0	61135	302.1	31.7
0	61136	302.1	31.5
0	61137	302.1	31.3
0	61138	302.1	31.1
0	61139	302.1	30.9
0	61140	302.1	30.7
0	61141	302.1	30.5
0	61142	302.1	30.3
0	61143	302.1	30.1
0	61144	302.1	29.9
0	61145	302.1	29.7
0	61146	302.1	29.5
0	61147	302.1	29.3
0	61148	302.1	29.1
0	61149	302.1	28.9
0	61150	302.1	28.7
0	61151	302.1	28.5
0	61152	302.1	28.3
0	61153	302.1	28.1
0	61154	302.1	27.9
0	61155	302.1	27.7
0	61156	302.1	27.5
0	61157	302.1	27.3
0	61158	302.1	27.1
0	61159	302.1	26.9
0	61160	302.1	26.7
0	61161	302.1	26.5
0	61162	302.1	26.3
0	61163	302.1	26.1
0	61164	302.1	25.9
0	61165	302.1	25.7
0	61166	302.1	25.5
0	61167	302.1	25.3
0	61168	302.1	25.1
0	61169	302.1	24.9
0	61170	302.1	24.7
0	61171	302.1	24.5
0	61172	302.1	24.3
0	61173	302.1	24.1
0	61174	302.1	23.9
0	61175	302.1	23.7
0	61176	302.1	23.5
0	61177	302.1	23.3
0	61178	302.1	23.1
0	61179	302.1	22.9
0	61180	302.1	22.7
0	61181	302.1	22.5
0	61182	302.1	22.3
0	61183	302.1	22.1
0	61184	302.1	21.9
0	61185	302.1	21.7
0	61186	302.1	21.5
0	61187	302.1	21.3
0	61188	302.1	21.1
0	61189	302.1	20.9
0	61190	302.1	20.7
0	61191	302.1	20.5
0	61192	302.1	20.3
0	61193	302.1	20.1
0	61194	302.1	19.9
0	61195	302.1	19.7
0	61196	302.1	19.5
0	61197	302.1	19.3
0	61198	302.1	19.1
0	61199	302.1	18.9
0	61200	302.1	18.7
0	61201	302.1	18.5
0	61202	302.1	18.3
0	61203	302.1	18.1
0	61204	302.1	17.9
0	61205	302.1	17.7
0	61206	302.1	17.5
0	61207	302.1	17.3
0	61208	302.1	17.1
0	61209	302.1	16.9
0	61210	302.1	16.7
0	61211	302.1	16.5
0	61212	302.1	16.3
0	61213	302.1	16.1
0	61214	302.1	15.9
0	61215	302.1	15.7
0	61216	302.1	15.5
0	61217	302.1	15.3
0	61218	302.1	15.1
0	61219	302.1	14.9
0	61220	302.1	14.7
0	61221	302.1	14.5
0	61222	302.1	14.3
0	61223	302.1	14.1
0	61224	302.1	13.9
0	61225	302.1	13.7
0	61226	302.1	13.5
0	61227	302.1	13.3
0	61228	302.1	13.1
0	61229	302.1	12.9
0	61230	302.1	12.7
0	61231	302.1	12.5
0	61232	302.1	12.3
0	61233	302.1	12.1
0	61234	302.1	11.9
0	61235	302.1	11.7
0	61236	302.1	11.5
0	61237	302.1	11.3
0	61238	302.1	11.1
0	61239	302.1	10.9
0	61240	302.1	10.7
0	61241	302.1	10.5
0	61242	302.1	10.3
0	61243	302.1	10.1
0	61244	302.1	9.9
0	61245	302.1	9.7
0	61246	302.1	9.5
0	61247	302.1	9.3
0	61248	302.1	9.1
0	61249	302.1	8.9
0	61250	302.1	8.7
0	61251	302.1	8.5
0	61252	302.1	8.3
0	61253	302.1	8.1
0	61254	302.1	7.9
0	61255	302.1	7.7
0	61256	302.1	7.5
0	61257	302.1	7.3
0	61258	302.1	7.1
0	61259	302.1	6.9
0	61260	302.1	6.7
0	61261	302.1	6.5
0	61262	302.1	6.3
0	61263	302.1	6.1
0	61264	302.1	5.9
0	61265	302.1	5.7
0	61266	302.1	5.5
0	70903	305.5	8.7
0	70904	305.5	8.5
0	70905	305.5	8.3
0	70906	305.5	8.1
0	70907	305.5	7.9
0	70908	305.5	7.7
0	76768	321.2	23.2
0	76769	321.2	23
0	76770	321.2	22.8
0	76771	321.2	22.6
0	76772	321.2	22.4
0	76773	321.2	22.2
0	76774	321.2	22
0	76775	321.2	21.8
0	76776	321.2	21.6
0	76777	321.2	21.4
0	76778	321.2	21.2
0	76779	321.2	21
0	76780	321.2	20.8
0	76781	321.2	20.6
0	76782	321.2	20.4
0	76783	321.2	20.2
0	76784	321.2	20
0	76785	321.2	19.8
0	76786	321.2	19.6
0	76787	321.2	19.4
0	76788	321.2	19.2
0	76789	321.2	19
0	76790	321.2	18.8
0	76791	321.2	18.6
0	76792	321.2	18.4
0	76793	321.2	18.2
0	76794	321.2	18
0	76795	321.2	17.8
0	76796	321.2	17.6
0	76797	321.2	17.4
0	76798	321.2	17.2
0	76799	321.2	17
0	76800	321.2	16.8
0	76801	321.2	16.6
0	76802	321.2	16.4
0	76803	321.2	16.2
0	76804	321.2	16
0	76805	321.2	15.8
0	76806	321.2	15.6
0	76807	321.2	15.4
0	76808	321.2	15.2
0	76809	321.2	15
0	76810	321.2	14.8
0	76811	321.2	14.6
0	76812	321.2	14.4
0	76813	321.2	14.2
0	76814	321.2	14
0	76815	321.2	13.8
0	76816	321.2	13.6
0	76817	321.2	13.4
0	76818	321.2	13.2
0	76819	321.2	13
0	76820	321.2	12.8
0	76821	321.2	12.6
0	76822	321.2	12.4
0	76823	321.2	12.2
0	76824	321.2	12
0	76825	321.2	11.8
0	76826	321.2	11.6
0	76827	321.2	11.4
0	76828	321.2	11.2
0	76829	321.2	11
0	76830	321.2	10.8
0	76831	321.2	10.6
0	76832	321.2	10.4
0	76833	321.2	10.2
0	76834	321.2	10
0	76835	321.2	9.8
0	76836	321.2	9.6
0	76837	321.2	9.4
0	76838	321.2	9.2
0	76839	321.2	9
0	76840	321.2	8.8
0	76841	321.2	8.6
0	76842	321.2	8.4
0	76843	321.2	8.2
0	76844	321.2	8
0	76845	321.2	7.8
0	76846	321.2	7.6
0	76847	321.2	7.4
0	76848	321.2	7.2
0	76849	321.2	7
0	76850	321.2	6.8
0	76851	321.2	6.6
0	76852	321.2	6.4
0	76853	321.2	6.2
0	76854	321.2	6
0	76855	321.2	5.8
0	76856	321.2	5.6
0	76857	321.2	5.4
0	76858	321.2	5.2
0	76859	321.2	5
0	76860	321.2	4.8
0	76861	321.2	4.6
0	76862	321.2	4.4
0	76863	321.2	4.2
0	76864	321.2	4
0	76865	321.2	3.8
0	76866	321.2	3.6
0	76867	321.2	3.4
0	76868	321.2	3.2
0	76869	321.2	3
0	76870	321.2	2.8
0	76871	321.2	2.6
0	76872	321.2	2.4
0	76873	321.2	2.2
0	76874	321.2	2
0	76875	321.2	1.8
0	76876	321.2	1.6
0	76877	321.2	1.4
0	88145	390.1	70.1
0	88146	390.1	69.9
0	88147	390.1	69.7
0	88148	390.1	69.5
0	88149	390.1	69.3
0	88150	390.1	69.1
0	88151	390.1	68.9
0	88152	390.1	68.7
0	88153	390.1	68.5
0	88154	390.1	68.3
0	88155	390.1	68.1
0	88156	390.1	67.9
0	88157	390.1	67.7
0	88158	390.1	67.5
0	88159	390.1	67.3
0	88160	390.1	67.1
0	88161	390.1	66.9
0	88162	390.1	66.7
0	88163	390.1	66.5
0	88164	390.1	66.3
0	88165	390.1	66.1
0	88166	390.1	65.9
0	88167	390.1	65.7
0	88168	390.1	65.5
0	88169	390.1	65.3
0	88170	390.1	65.1
0	88171	390.1	64.9
0	88172	390.1	64.7
0	88173	390.1	64.5
0	88174	390.1	64.3
0	88175	390.1	64.1
0	88176	390.1	63.9
0	88177	390.1	63.7
0	88178	390.1	63.5
0	88179	390.1	63.3
0	88180	390.1	63.1
0	88181	390.1	62.9
0	88182	390.1	62.7
0	88183	390.1	62.5
0	88184	390.1	62.3
0	88185	390.1	62.1
0	88186	390.1	61.9
0	88187	390.1	61.7
0	88188	390.1	61.5
0	88189	390.1	61.3
0	88190	390.1	61.1
0	88191	390.1	60.9
0	88192	390.1	60.7
0	88193	390.1	60.5
0	88194	390.1	60.3
0	88195	390.1	60.1
0	88196	390.1	59.9
0	88197	390.1	59.7
0	88198	390.1	59.5
0	88199	390.1	59.3
0	88200	390.1	59.1
0	88201	390.1	58.9
0	88202	390.1	58.7
0	88203	390.1	58.5
0	88204	390.1	58.3
0	88205	390.1	58.1
0	88206	390.1	57.9
0	88207	390.1	57.7
0	88208	390.1	57.5
0	88209	390.1	57.3
0	88210	390.1	57.1
0	88211	390.1	56.9
0	88212	390.1	56.7
0	88213	390.1	56.5
0	88214	390.1	56.3
0	88215	390.1	56.1
0	88216	390.1	55.9
0	88217	390.1	55.7
0	88218	390.1	55.5
0	88219	390.1	55.3
0	88220	390.1	55.1
0	88221	390.1	54.9
0	88222	390.1	54.7
0	88223	390.1	54.5
0	88224	390.1	54.3
0	88225	390.1	54.1
0	88226	390.1	53.9
0	88227	390.1	53.7
0	88228	390.1	53.5
0	88229	390.1	53.3
0	88230	390.1	53.1
0	88231	390.1	52.9
0	88232	390.1	52.7
0	88233	390.1	52.5
0	88234	390.1	52.3
0	88235	390.1	52.1
0	88236	390.1	51.9
0	88237	390.1	51.7
0	88238	390.1	51.5
0	88239	390.1	51.3
0	88240	390.1	51.1
0	88241	390.1	50.9
0	88242	390.1	50.7
0	88243	390.1	50.5
0	88244	390.1	50.3
0	88245	390.1	50.1
0	88246	390.1	49.9
0	88247	390.1	49.7
0	88248	390.1	49.5
0	88249	390.1	49.3
0	88250	390.1	49.1
0	88251	390.1	48.9
0	88252	390.1	48.7
0	88253	390.1	48.5
0	88254	390.1	48.3
0	88255	390.1	48.1
0	88256	390.1	47.9
0	88257	390.1	47.7
0	88258	390.1	47.5
0	88259	390.1	47.3
0	88260	390.1	47.1
0	88261	390.1	46.9
0	88262	390.1	46.7
0	88263	390.1	46.5
0	88264	390.1	46.3
0	88265	390.1	46.1
0	88266	390.1	45.9
0	88267	390.1	45.7
0	88268	390.1	45.5
0	88269	390.1	45.3
0	88270	390.1	45.1
0	88271	390.1	44.9
0	88272	390.1	44.7
0	88273	390.1	44.5
0	88274	390.1	44.3
0	88275	390.1	44.1
0	88276	390.1	43.9
0	88277	390.1	43.7
0	88278	390.1	43.5
0	88279	390.1	43.3
0	88280	390.1	43.1
0	88281	390.1	42.9
0	88282	390.1	42.7
0	88283	390.1	42.5
0	88284	390.1	42.3
0	88285	390.1	42.1
0	88286	390.1	41.9
0	88287	390.1	41.7
0	88288	390.1	41.5
0	88289	390.1	41.3
0	88290	390.1	41.1
0	88291	390.1	40.9
0	88292	390.1	40.7
0	88293	390.1	40.5
0	88294	390.1	40.3
0	88295	390.1	40.1
0	88296	390.1	39.9
0	88297	390.1	39.7
0	88298	390.1	39.5
0	88299	390.1	39.3
0	88300	390.1	39.1
0	88301	390.1	38.9
0	88302	390.1	38.7
0	88303	390.1	38.5
0	88304	390.1	38.3
0	88305	390.1	38.1
0	88306	390.1	37.9
0	88307	390.1	37.7
0	88308	390.1	37.5
0	88309	390.1	37.3
0	88310	390.1	37.1
0	88311	390.1	36.9
0	88312	390.1	36.7
0	88313	390.1	36.5
0	88314	390.1	36.3
0	88315	390.1	36.1
0	88316	390.1	35.9
0	88317	390.1	35.7
0	88318	390.1	35.5
0	88319	390.1	35.3
0	88320	390.1	35.1
0	88321	390.1	34.9
0	88322	390.1	34.7
0	88323	390.1	34.5
0	88324	390.1	34.3
0	88325	390.1	34.1
0	88326	390.1	33.9
0	88327	390.1	33.7
0	88328	390.1	33.5
0	88329	390.1	33.3
0	88330	390.1	33.1
0	88331	390.1	32.9
0	88332	390.1	32.7
0	88333	390.1	32.5
0	88334	390.1	32.3
0	88335	390.1	32.1
0	88336	390.1	31.9
0	88337	390.1	31.7
0	88338	390.1	31.5
0	88339	390.1	31.3
0	88340	390.1	31.1
0	88341	390.1	30.9
0	88342	390.1	30.7
0	88343	390.1	30.5
0	88344	390.1	30.3
0	88345	390.1	30.1
0	88346	390.1	29.9
0	88347	390.1	29.7
0	88348	390.1	29.5
0	88349	390.1	29.3
0	88350	390.1	29.1
0	88351	390.1	28.9
0	88352	390.1	28.7
0	88353	390.1	28.5
0	88354	390.1	28.3
0	88355	390.1	28.1
0	88356	390.1	27.9
0	88357	390.1	27.7
0	88358	390.1	27.5
0	88359	390.1	27.3
0	88360	390.1	27.1
0	88361	390.1	26.9
0	88362	390.1	26.7
0	88363	390.1	26.5
0	88364	390.1	26.3
0	88365	390.1	26.1
0	88366	390.1	25.9
0	88367	390.1	25.7
0	88368	390.1	25.5
0	88369	390.1	25.3
0	88370	390.1	25.1
0	88371	390.1	24.9
0	88372	390.1	24.7
0	88373	390.1	24.5
0	88374	390.1	24.3
0	88375	390.1	24.1
0	88376	390.1	23.9
0	88377	390.1	23.7
0	88378	390.1	23.5
0	88379	390.1	23.3
0	88380	390.1	23.1
0	88381	390.1	22.9
0	88382	390.1	22.7
0	88383	390.1	22.5
0	88384	390.1	22.3
0	88385	390.1	22.1
0	88386	390.1	21.9
0	88387	390.1	21.7
0	88388	390.1	21.5
0	88389	390.1	21.3
0	88390	390.1	21.1
0	88391	390.1	20.9
0	88392	390.1	20.7
0	88393	390.1	20.5
0	88394	390.1	20.3
0	88395	390.1	20.1
0	88396	390.1	19.9
0	88397	390.1	19.7
0	88398	390.1	19.5
0	88399	390.1	19.3
0	88400	390.1	19.1
0	88401	390.1	18.9
0	88402	390.1	18.7
0	88403	390.1	18.5
0	88404	390.1	18.3
0	88405	390.1	18.1
0	88406	390.1	17.9
0	88407	390.1	17.7
0	88408	390.1	17.5
0	88409	390.1	17.3
0	88410	390.1	17.1
0	88411	390.1	16.9
0	88412	390.1	16.7
0	88413	390.1	16.5
0	88414	390.1	16.3
0	88415	390.1	16.1
0	88416	390.1	15.9
0	88417	390.1	15.7
0	88418	390.1	15.5
0	88419	390.1	15.3
0	88420	390.1	15.1
0	88421	390.1	14.9
0	88422	390.1	14.7
0	88423	390.1	14.5
0	88424	390.1	14.3
0	88425	390.1	14.1
0	88426	390.1	13.9
0	88427	390.1	13.7
0	88428	390.1	13.5
0	88429	390.1	13.3
0	88430	390.1	13.1
0	88431	390.1	12.9
0	88432	390.1	12.7
0	88433	390.1	12.5
0	88434	390.1	12.3
0	88435	390.1	12.1
0	88436	390.1	11.9
0	88437	390.1	11.7
0	88438	390.1	11.5
0	88439	390.1	11.3
0	88440	390.1	11.1
0	88441	390.1	10.9
0	88442	390.1	10.7
0	88443	390.1	10.5
0	88444	390.1	10.3
0	88445	390.1	10.1
0	88446	390.1	9.9
0	88447	390.1	9.7
0	88448	390.1	9.5
0	88449	390.1	9.3
0	91544	390.2	9.2
0	91545	390.2	9
0	91546	390.2	8.8
0	91547	390.2	8.6
0	91548	390.2	8.4
0	91549	390.2	8.2
0	91550	390.2	8
0	91551	390.2	7.8
0	91552	390.2	7.6
0	91553	390.2	7.4
0	91554	390.2	7.2
0	91555	390.2	7
0	91556	390.2	6.8
0	91557	390.2	6.6
0	97290	422.1	38.3
0	97291	422.1	38.1
0	97292	422.1	37.9
0	97293	422.1	37.7
0	97294	422.1	37.5
0	97295	422.1	37.3
0	97296	422.1	37.1
0	97297	422.1	36.9
0	97298	422.1	36.7
0	97299	422.1	36.5
0	97300	422.1	36.3
0	97301	422.1	36.1
0	97302	422.1	35.9
0	97303	422.1	35.7
0	97304	422.1	35.5
0	97305	422.1	35.3
0	97306	422.1	35.1
0	97307	422.1	34.9
0	97308	422.1	34.7
0	97309	422.1	34.5
0	97310	422.1	34.3
0	108928	457.1	32.1
0	108929	457.1	31.9
0	108930	457.1	31.7
0	108931	457.1	31.5
0	108932	457.1	31.3
0	108933	457.1	31.1
0	108934	457.1	30.9
0	108935	457.1	30.7
0	108936	457.1	30.5
0	108937	457.1	30.3
0	108938	457.1	30.1
0	108939	457.1	29.9
0	108940	457.1	29.7
0	108941	457.1	29.5
0	108942	457.1	29.3
0	108943	457.1	29.1
0	108944	457.1	28.9
0	108945	457.1	28.7
0	108946	457.1	28.5
0	108947	457.1	28.3
0	108948	457.1	28.1
0	108949	457.1	27.9
0	108950	457.1	27.7
0	108951	457.1	27.5
0	108952	457.1	27.3
0	108953	457.1	27.1
0	108954	457.1	26.9
0	108955	457.1	26.7
0	108956	457.1	26.5
0	108957	457.1	26.3
0	108958	457.1	26.1
0	108959	457.1	25.9
0	108960	457.1	25.7
0	108961	457.1	25.5
0	108962	457.1	25.3
0	108963	457.1	69.1
0	108964	457.1	25.1
0	108965	457.1	68.9
0	108966	457.1	68.7
0	108967	457.1	68.5
0	108968	457.1	68.3
0	108969	457.1	68.1
0	108970	457.1	67.9
0	108971	457.1	67.7
0	108972	457.1	67.5
0	108973	457.1	67.3
0	108974	457.1	67.1
0	108975	457.1	66.9
0	108976	457.1	66.7
0	108977	457.1	66.5
0	108978	457.1	66.3
0	108979	457.1	66.1
0	108980	457.1	65.9
0	108981	457.1	65.7
0	108982	457.1	65.5
0	108983	457.1	65.3
0	108984	457.1	65.1
0	108985	457.1	64.9
0	108986	457.1	64.7
0	108987	457.1	64.5
0	108988	457.1	64.3
0	108989	457.1	64.1
0	108990	457.1	63.9
0	108991	457.1	63.7
0	108992	457.1	63.5
0	108993	457.1	63.3
0	108994	457.1	63.1
0	108995	457.1	62.9
0	108996	457.1	62.7
0	108997	457.1	62.5
0	108998	457.1	62.3
0	108999	457.1	62.1
0	109000	457.1	61.9
0	109001	457.1	61.7
0	109002	457.1	61.5
0	109003	457.1	61.3
0	109004	457.1	61.1
0	109005	457.1	60.9
0	109006	457.1	60.7
0	109007	457.1	60.5
0	109008	457.1	60.3
0	109009	457.1	60.1
0	109010	457.1	59.9
0	109011	457.1	59.7
0	109012	457.1	59.5
0	109013	457.1	59.3
0	109014	457.1	59.1
0	109015	457.1	58.9
0	109016	457.1	58.7
0	109017	457.1	58.5
0	109018	457.1	58.3
0	109019	457.1	58.1
0	109020	457.1	57.9
0	109021	457.1	57.7
0	109022	457.1	57.5
0	109023	457.1	57.3
0	109024	457.1	57.1
0	109025	457.1	56.9
0	109026	457.1	56.7
0	109027	457.1	56.5
0	109028	457.1	56.3
0	109029	457.1	56.1
0	109030	457.1	55.9
0	109031	457.1	55.7
0	109032	457.1	55.5
0	109033	457.1	55.3
0	109034	457.1	55.1
0	109035	457.1	54.9
0	109036	457.1	54.7
0	109037	457.1	54.5
0	109038	457.1	54.3
0	109039	457.1	54.1
0	109040	457.1	53.9
0	109041	457.1	53.7
0	109042	457.1	53.5
0	109043	457.1	53.3
0	109044	457.1	53.1
0	109045	457.1	52.9
0	109046	457.1	52.7
0	109047	457.1	52.5
0	109048	457.1	52.3
0	109049	457.1	52.1
0	109050	457.1	51.9
0	109051	457.1	51.7
0	109052	457.1	51.5
0	109053	457.1	51.3
0	109054	457.1	51.1
0	109055	457.1	50.9
0	109056	457.1	50.7
0	109057	457.1	50.5
0	109058	457.1	50.3
0	109059	457.1	50.1
0	109060	457.1	49.9
0	109061	457.1	49.7
0	109062	457.1	49.5
0	109063	457.1	49.3
0	109064	457.1	49.1
0	109065	457.1	48.9
0	109066	457.1	48.7
0	109067	457.1	48.5
0	109068	457.1	48.3
0	109069	457.1	48.1
0	109070	457.1	47.9
0	109071	457.1	47.7
0	109072	457.1	47.5
0	109073	457.1	47.3
0	109074	457.1	47.1
0	109075	457.1	46.9
0	109076	457.1	46.7
0	109077	457.1	46.5
0	109078	457.1	46.3
0	109079	457.1	46.1
0	109080	457.1	45.9
0	109081	457.1	45.7
0	109082	457.1	45.5
0	109083	457.1	45.3
0	109084	457.1	45.1
0	109085	457.1	44.9
0	109086	457.1	44.7
0	109087	457.1	44.5
0	109088	457.1	44.3
0	109089	457.1	44.1
0	109090	457.1	43.9
0	109091	457.1	43.7
0	109092	457.1	43.5
0	109093	457.1	43.3
0	109094	457.1	43.1
0	109095	457.1	42.9
0	109096	457.1	42.7
0	109097	457.1	42.5
0	109098	457.1	42.3
0	109099	457.1	42.1
0	109100	457.1	41.9
0	109101	457.1	41.7
0	109102	457.1	41.5
0	109103	457.1	41.3
0	109104	457.1	41.1
0	109105	457.1	40.9
0	109106	457.1	40.7
0	109107	457.1	40.5
0	109108	457.1	40.3
0	109109	457.1	40.1
0	109110	457.1	39.9
0	109111	457.1	39.7
0	109112	457.1	39.5
0	109113	457.1	39.3
0	109114	457.1	39.1
0	109115	457.1	38.9
0	109116	457.1	38.7
0	109117	457.1	38.5
0	109118	457.1	38.3
0	109119	457.1	38.1
0	109120	457.1	37.9
0	109121	457.1	37.7
0	109122	457.1	37.5
0	109123	457.1	37.3
0	109124	457.1	37.1
0	109125	457.1	36.9
0	109126	457.1	36.7
0	109127	457.1	36.5
0	109128	457.1	36.3
0	109129	457.1	36.1
0	109130	457.1	35.9
0	109131	457.1	35.7
0	109132	457.1	35.5
0	109133	457.1	35.3
0	109134	457.1	35.1
0	109135	457.1	34.9
0	109136	457.1	34.7
0	109137	457.1	34.5
0	109138	457.1	34.3
0	109139	457.1	34.1
0	109140	457.1	33.9
0	109141	457.1	33.7
0	109142	457.1	33.5
0	109143	457.1	33.3
0	109144	457.1	33.1
0	109145	457.1	32.9
0	109146	457.1	32.7
0	109147	457.1	32.5
0	109148	457.1	32.3
0	109149	457.1	24.9
0	109150	457.1	24.7
0	109151	457.1	24.5
0	109152	457.1	24.3
0	109153	457.1	24.1
0	109154	457.1	23.9
0	109155	457.1	23.7
0	109156	457.1	23.5
0	109157	457.1	23.3
0	122622	521.1	87.1
0	122623	521.1	86.9
0	122624	521.1	86.7
0	122625	521.1	86.5
0	122626	521.1	86.3
0	122627	521.1	86.1
0	122628	521.1	85.9
0	122629	521.1	85.7
0	122630	521.1	85.5
0	122631	521.1	85.3
0	122632	521.1	85.1
0	122633	521.1	84.9
0	122634	521.1	84.7
0	122635	521.1	84.5
0	122636	521.1	84.3
0	122637	521.1	84.1
0	122638	521.1	83.9
0	122639	521.1	83.7
0	122640	521.1	83.5
0	122641	521.1	83.3
0	122642	521.1	83.1
0	122643	521.1	82.9
0	122644	521.1	82.7
0	122645	521.1	82.5
0	122646	521.1	82.3
0	122647	521.1	82.1
0	122648	521.1	81.9
0	122649	521.1	81.7
0	122650	521.1	81.5
0	122651	521.1	81.3
0	122652	521.1	81.1
0	122653	521.1	80.9
0	122654	521.1	80.7
0	122655	521.1	80.5
0	122656	521.1	80.3
0	122657	521.1	80.1
0	122658	521.1	79.9
0	122659	521.1	79.7
0	122660	521.1	79.5
0	122661	521.1	79.3
0	122662	521.1	79.1
0	122663	521.1	78.9
0	122664	521.1	78.7
0	122665	521.1	78.5
0	122666	521.1	78.3
0	122667	521.1	78.1
0	122668	521.1	77.9
0	122669	521.1	77.7
0	122670	521.1	77.5
0	122671	521.1	77.3
0	122672	521.1	77.1
0	122673	521.1	76.9
0	122674	521.1	76.7
0	122675	521.1	76.5
0	122676	521.1	76.3
0	122677	521.1	76.1
0	122678	521.1	75.9
0	122679	521.1	75.7
0	122680	521.1	75.5
0	122681	521.1	75.3
0	122682	521.1	75.1
0	122683	521.1	74.9
0	122684	521.1	74.7
0	122685	521.1	74.5
0	122686	521.1	74.3
0	122687	521.1	74.1
0	122688	521.1	73.9
0	122689	521.1	73.7
0	122690	521.1	73.5
0	122691	521.1	73.3
0	122692	521.1	73.1
0	122693	521.1	72.9
0	122694	521.1	72.7
0	122695	521.1	72.5
0	122696	521.1	72.3
0	122697	521.1	72.1
0	122698	521.1	71.9
0	122699	521.1	71.7
0	122700	521.1	71.5
0	122701	521.1	71.3
0	122702	521.1	71.1
0	122703	521.1	70.9
0	122704	521.1	70.7
0	122705	521.1	70.5
0	122706	521.1	70.3
0	122707	521.1	70.1
0	122708	521.1	69.9
0	122709	521.1	69.7
0	122710	521.1	69.5
0	122711	521.1	69.3
0	122712	521.1	69.1
0	122713	521.1	68.9
0	122714	521.1	68.7
0	122715	521.1	68.5
0	122716	521.1	68.3
0	122717	521.1	68.1
0	122718	521.1	67.9
0	122719	521.1	67.7
0	122720	521.1	67.5
0	122721	521.1	67.3
0	122722	521.1	67.1
0	122723	521.1	66.9
0	122724	521.1	66.7
0	122725	521.1	66.5
0	122726	521.1	66.3
0	122727	521.1	66.1
0	122728	521.1	65.9
0	122729	521.1	65.7
0	122730	521.1	65.5
0	122731	521.1	65.3
0	122732	521.1	65.1
0	122733	521.1	64.9
0	122734	521.1	64.7
0	122735	521.1	64.5
0	122736	521.1	64.3
0	122737	521.1	64.1
0	122738	521.1	63.9
0	122739	521.1	63.7
0	122740	521.1	63.5
0	122741	521.1	63.3
0	122742	521.1	63.1
0	122743	521.1	62.9
0	122744	521.1	62.7
0	122745	521.1	62.5
0	122746	521.1	62.3
0	122747	521.1	62.1
0	122748	521.1	61.9
0	122749	521.1	61.7
0	122750	521.1	61.5
0	122751	521.1	61.3
0	122752	521.1	61.1
0	122753	521.1	60.9
0	122754	521.1	60.7
0	122755	521.1	60.5
0	122756	521.1	60.3
0	122757	521.1	60.1
0	122758	521.1	59.9
0	122759	521.1	59.7
0	122760	521.1	59.5
0	122761	521.1	59.3
0	122762	521.1	59.1
0	122763	521.1	58.9
0	122764	521.1	58.7
0	122765	521.1	58.5
0	122766	521.1	58.3
0	122767	521.1	58.1
0	122768	521.1	57.9
0	122769	521.1	57.7
0	122770	521.1	57.5
0	122771	521.1	57.3
0	122772	521.1	57.1
0	122773	521.1	56.9
0	122774	521.1	56.7
0	122775	521.1	56.5
0	122776	521.1	56.3
0	122777	521.1	56.1
0	122778	521.1	55.9
0	122779	521.1	55.7
0	122780	521.1	55.5
0	122781	521.1	55.3
0	122782	521.1	55.1
0	122783	521.1	54.9
0	122784	521.1	54.7
0	122785	521.1	54.5
0	122786	521.1	54.3
0	122787	521.1	54.1
0	122788	521.1	53.9
0	122789	521.1	53.7
0	122790	521.1	53.5
0	122791	521.1	53.3
0	122792	521.1	53.1
0	122793	521.1	52.9
0	122794	521.1	52.7
0	122795	521.1	52.5
0	122796	521.1	52.3
0	122797	521.1	52.1
0	122798	521.1	51.9
0	122799	521.1	51.7
0	122800	521.1	51.5
0	122801	521.1	51.3
0	122802	521.1	51.1
0	122803	521.1	50.9
0	122804	521.1	50.7
0	122805	521.1	50.5
0	122806	521.1	50.3
0	122807	521.1	50.1
0	122808	521.1	49.9
0	122809	521.1	49.7
0	122810	521.1	49.5
0	122811	521.1	49.3
0	122812	521.1	49.1
0	122813	521.1	48.9
0	122814	521.1	48.7
0	122815	521.1	48.5
0	122816	521.1	48.3
0	122817	521.1	48.1
0	122818	521.1	47.9
0	122819	521.1	47.7
0	122820	521.1	47.5
0	122821	521.1	47.3
0	122822	521.1	47.1
0	122823	521.1	46.9
0	122824	521.1	46.7
0	122825	521.1	46.5
0	122826	521.1	46.3
0	122827	521.1	46.1
0	122828	521.1	45.9
0	122829	521.1	45.7
0	122830	521.1	45.5
0	122831	521.1	45.3
0	122832	521.1	45.1
0	122833	521.1	44.9
0	122834	521.1	44.7
0	122835	521.1	44.5
0	124312	521.4	43.4
0	124313	521.4	43.2
0	124314	521.4	43
0	124315	521.4	42.8
0	124316	521.4	42.6
0	124317	521.4	42.4
0	124318	521.4	42.2
0	124319	521.4	42
0	124320	521.4	41.8
0	124321	521.4	41.6
0	124322	521.4	41.4
0	124323	521.4	41.2
0	124324	521.4	41
0	124325	521.4	40.8
0	124326	521.4	40.6
0	124327	521.4	40.4
0	124328	521.4	40.2
0	124329	521.4	40
0	124330	521.4	39.8
0	124331	521.4	39.6
0	124332	521.4	39.4
0	124333	521.4	39.2
0	124334	521.4	39
0	124335	521.4	38.8
0	124336	521.4	38.6
0	124337	521.4	38.4
0	124338	521.4	38.2
0	124339	521.4	38
0	124340	521.4	37.8
0	124341	521.4	37.6
0	124342	521.4	37.4
0	124343	521.4	37.2
0	124344	521.4	37
0	124345	521.4	36.8
0	124346	521.4	36.6
0	124347	521.4	36.4
0	124348	521.4	36.2
0	124349	521.4	36
0	124350	521.4	35.8
0	124351	521.4	35.6
0	124352	521.4	35.4
0	124353	521.4	35.2
0	124354	521.4	35
0	124355	521.4	34.8
0	124356	521.4	34.6
0	124357	521.4	34.4
0	124358	521.4	34.2
0	124359	521.4	34
0	124360	521.4	33.8
0	124361	521.4	33.6
0	124362	521.4	33.4
0	124363	521.4	33.2
0	124364	521.4	33
0	124365	521.4	32.8
0	124366	521.4	32.6
0	124367	521.4	32.4
0	124368	521.4	32.2
0	124369	521.4	32
0	124370	521.4	31.8
0	124371	521.4	31.6
0	124372	521.4	31.4
0	124373	521.4	31.2
0	124374	521.4	31
0	124375	521.4	30.8
0	124376	521.4	30.6
0	124377	521.4	30.4
0	124378	521.4	30.2
0	124379	521.4	30
0	124380	521.4	29.8
0	124381	521.4	29.6
0	124382	521.4	29.4
0	124383	521.4	29.2
0	124384	521.4	29
0	124385	521.4	28.8
0	124386	521.4	28.6
0	124387	521.4	28.4
0	124388	521.4	28.2
0	124389	521.4	28
0	124390	521.4	27.8
0	124391	521.4	27.6
0	124392	521.4	27.4
0	124393	521.4	27.2
0	124394	521.4	27
0	124395	521.4	26.8
0	124396	521.4	26.6
0	124397	521.4	26.4
0	124398	521.4	26.2
0	124399	521.4	26
0	124400	521.4	25.8
0	124401	521.4	25.6
0	124402	521.4	25.4
0	124403	521.4	25.2
0	124404	521.4	25
0	124405	521.4	24.8
0	124406	521.4	24.6
0	124407	521.4	24.4
0	124408	521.4	24.2
0	124409	521.4	24
0	124410	521.4	23.8
0	124411	521.4	23.6
0	124412	521.4	23.4
0	124413	521.4	23.2
0	124414	521.4	23
0	124415	521.4	22.8
0	124416	521.4	22.6
0	124417	521.4	22.4
0	124418	521.4	22.2
0	124419	521.4	22
0	124420	521.4	21.8
0	124421	521.4	21.6
0	124422	521.4	21.4
0	124423	521.4	21.2
0	124424	521.4	21
0	124425	521.4	20.8
0	124426	521.4	20.6
0	124427	521.4	20.4
0	124428	521.4	20.2
0	124429	521.4	20
0	124430	521.4	19.8
0	124431	521.4	19.6
0	124432	521.4	19.4
0	124433	521.4	19.2
0	124434	521.4	19
0	124435	521.4	18.8
0	124436	521.4	18.6
0	124437	521.4	18.4
0	124438	521.4	18.2
0	124439	521.4	18
0	124440	521.4	17.8
0	124441	521.4	17.6
0	124442	521.4	17.4
0	124443	521.4	17.2
0	124444	521.4	17
0	124445	521.4	16.8
0	124446	521.4	16.6
0	124447	521.4	16.4
0	124448	521.4	16.2
0	124449	521.4	16
0	124450	521.4	15.8
0	124451	521.4	15.6
0	124452	521.4	15.4
0	124453	521.4	15.2
0	124454	521.4	15
0	124455	521.4	14.8
0	124456	521.4	14.6
0	124457	521.4	14.4
0	124458	521.4	14.2
0	124459	521.4	14
0	124460	521.4	13.8
0	124461	521.4	13.6
0	124462	521.4	13.4
0	124463	521.4	13.2
0	124464	521.4	13
0	124465	521.4	12.8
0	124466	521.4	12.6
0	124467	521.4	12.4
0	124468	521.4	12.2
0	124469	521.4	12
0	124470	521.4	11.8
0	124471	521.4	11.6
0	124472	521.4	11.4
0	124473	521.4	11.2
0	124474	521.4	11
0	124475	521.4	10.8
0	124476	521.4	10.6
0	124477	521.4	10.4
0	124478	521.4	10.2
0	124479	521.4	10
0	124480	521.4	9.8
0	124481	521.4	9.6
0	124482	521.4	9.4
0	124483	521.4	9.2
0	124484	521.4	9
0	124485	521.4	8.8
0	124486	521.4	8.6
0	124487	521.4	8.4
0	124488	521.4	8.2
0	124489	521.4	8
0	124490	521.4	7.8
0	124491	521.4	7.6
0	124492	521.4	7.4
0	124493	521.4	7.2
0	124494	521.4	7
0	124495	521.4	6.8
0	124496	521.4	6.6
0	124497	521.4	6.4
0	124498	521.4	6.2
0	124499	521.4	6
0	124500	521.4	5.8
0	124501	521.4	5.6
0	124502	521.4	5.4
0	124503	521.4	5.2
0	124504	521.4	5
0	124505	521.4	4.8
0	124506	521.4	4.6
0	124507	521.4	4.4
0	124508	521.4	4.2
0	124509	521.4	4
0	124510	521.4	3.8
0	124511	521.4	3.6
0	124512	521.4	3.4
0	124513	521.4	3.2
0	124514	521.4	3
0	124515	521.4	2.8
0	124516	521.4	2.6
0	124517	521.4	2.4
0	124518	521.4	2.2
0	124519	521.4	2
0	124520	521.4	1.8
0	124521	521.4	1.6
0	134553	582.1	105.3
0	134554	582.1	105.1
0	134555	582.1	104.9
0	134556	582.1	104.7
0	134557	582.1	104.5
0	134558	582.1	104.3
0	134559	582.1	62.1
0	134560	582.1	61.9
0	134561	582.1	61.7
0	134562	582.1	61.5
0	134563	582.1	61.3
0	134564	582.1	61.1
0	134565	582.1	60.9
0	134566	582.1	60.7
0	134567	582.1	60.5
0	134568	582.1	60.3
0	134569	582.1	60.1
0	134570	582.1	59.9
0	134571	582.1	59.7
0	134572	582.1	59.5
0	134573	582.1	59.3
0	134574	582.1	59.1
0	134575	582.1	58.9
0	134576	582.1	58.7
0	134577	582.1	58.5
0	134578	582.1	58.3
0	134579	582.1	58.1
0	134580	582.1	57.9
0	134581	582.1	57.7
0	134582	582.1	57.5
0	134583	582.1	57.3
0	134584	582.1	57.1
0	134585	582.1	56.9
0	134586	582.1	56.7
0	134587	582.1	56.5
0	134588	582.1	56.3
0	134589	582.1	56.1
0	134590	582.1	55.9
0	134591	582.1	55.7
0	134592	582.1	55.5
0	134593	582.1	55.3
0	134594	582.1	55.1
0	134595	582.1	54.9
0	134596	582.1	54.7
0	134597	582.1	54.5
0	134598	582.1	54.3
0	134599	582.1	54.1
0	134600	582.1	53.9
0	134601	582.1	53.7
0	134602	582.1	53.5
0	134603	582.1	53.3
0	134604	582.1	53.1
0	134605	582.1	52.9
0	134606	582.1	52.7
0	134607	582.1	52.5
0	134608	582.1	52.3
0	134609	582.1	52.1
0	134610	582.1	51.9
0	134611	582.1	51.7
0	134612	582.1	51.5
0	134613	582.1	51.3
0	134614	582.1	51.1
0	134615	582.1	50.9
0	134616	582.1	50.7
0	134617	582.1	50.5
0	134618	582.1	50.3
0	134619	582.1	50.1
0	134620	582.1	49.9
0	134621	582.1	49.7
0	134622	582.1	49.5
0	134623	582.1	49.3
0	134624	582.1	49.1
0	134625	582.1	48.9
0	134626	582.1	48.7
0	134627	582.1	48.5
0	134628	582.1	48.3
0	134629	582.1	48.1
0	134630	582.1	47.9
0	134631	582.1	47.7
0	134632	582.1	47.5
0	134633	582.1	47.3
0	134634	582.1	47.1
0	134635	582.1	46.9
0	134636	582.1	46.7
0	134637	582.1	46.5
0	134638	582.1	46.3
0	134639	582.1	46.1
0	134640	582.1	45.9
0	134641	582.1	45.7
0	134642	582.1	45.5
0	134643	582.1	45.3
0	134644	582.1	45.1
0	134645	582.1	44.9
0	134646	582.1	44.7
0	134647	582.1	44.5
0	134648	582.1	44.3
0	134649	582.1	44.1
0	134650	582.1	43.9
0	134651	582.1	43.7
0	134652	582.1	43.5
0	134653	582.1	43.3
0	134654	582.1	43.1
0	134655	582.1	42.9
0	134656	582.1	42.7
0	134657	582.1	42.5
0	134658	582.1	42.3
0	134659	582.1	42.1
0	134660	582.1	41.9
0	134661	582.1	41.7
0	134662	582.1	41.5
0	134663	582.1	41.3
0	134664	582.1	41.1
0	134665	582.1	40.9
0	134666	582.1	40.7
0	134667	582.1	40.5
0	134668	582.1	40.3
0	134669	582.1	40.1
0	134670	582.1	39.9
0	134671	582.1	39.7
0	134672	582.1	39.5
0	134673	582.1	39.3
0	134674	582.1	39.1
0	134675	582.1	38.9
0	134676	582.1	38.7
0	134677	582.1	38.5
0	134678	582.1	38.3
0	134679	582.1	38.1
0	134680	582.1	37.9
0	134681	582.1	37.7
0	134682	582.1	37.5
0	134683	582.1	37.3
0	134684	582.1	37.1
0	134685	582.1	36.9
0	134686	582.1	36.7
0	134687	582.1	36.5
0	134688	582.1	36.3
0	134689	582.1	36.1
0	134690	582.1	35.9
0	134691	582.1	35.7
0	134692	582.1	35.5
0	134693	582.1	35.3
0	134694	582.1	35.1
0	134695	582.1	34.9
0	134696	582.1	34.7
0	134697	582.1	34.5
0	134698	582.1	34.3
0	134699	582.1	34.1
0	134700	582.1	33.9
0	134701	582.1	33.7
0	134702	582.1	33.5
0	134703	582.1	33.3
0	134704	582.1	33.1
0	134705	582.1	32.9
0	134706	582.1	32.7
0	134707	582.1	32.5
0	134708	582.1	32.3
0	134709	582.1	32.1
0	134710	582.1	31.9
0	134711	582.1	31.7
0	134712	582.1	31.5
0	134713	582.1	31.3
0	134714	582.1	31.1
0	134715	582.1	30.9
0	134716	582.1	30.7
0	134717	582.1	30.5
0	134718	582.1	30.3
0	134719	582.1	30.1
0	134720	582.1	29.9
0	134721	582.1	29.7
0	134722	582.1	29.5
0	134723	582.1	29.3
0	134724	582.1	29.1
0	134725	582.1	28.9
0	134726	582.1	28.7
0	134727	582.1	28.5
0	134728	582.1	28.3
0	134729	582.1	28.1
0	134730	582.1	27.9
0	134731	582.1	27.7
0	134732	582.1	27.5
0	134733	582.1	27.3
0	134734	582.1	27.1
0	134735	582.1	26.9
0	134736	582.1	26.7
0	134737	582.1	26.5
0	134738	582.1	26.3
0	134739	582.1	26.1
0	134740	582.1	25.9
0	134741	582.1	25.7
0	134742	582.1	25.5
0	134743	582.1	25.3
0	134744	582.1	25.1
0	134745	582.1	24.9
0	134746	582.1	24.7
0	134747	582.1	24.5
0	134748	582.1	24.3
0	134749	582.1	24.1
0	134750	582.1	23.9
0	134751	582.1	23.7
0	134752	582.1	23.5
0	134753	582.1	23.3
0	134754	582.1	23.1
0	134755	582.1	22.9
0	134756	582.1	22.7
0	134757	582.1	22.5
0	134758	582.1	22.3
0	134759	582.1	22.1
0	134760	582.1	21.9
0	134761	582.1	21.7
0	134762	582.1	21.5
0	134763	582.1	21.3
0	134764	582.1	21.1
0	134765	582.1	20.9
0	134766	582.1	20.7
0	134767	582.1	20.5
0	134768	582.1	20.3
0	134769	582.1	20.1
0	134770	582.1	19.9
0	134771	582.1	19.7
0	134772	582.1	19.5
0	134773	582.1	19.3
0	134774	582.1	19.1
0	134775	582.1	18.9
0	134776	582.1	18.7
0	134777	582.1	18.5
0	134778	582.1	18.3
0	134779	582.1	18.1
0	134780	582.1	17.9
0	134781	582.1	17.7
0	134782	582.1	17.5
0	134783	582.1	17.3
0	134784	582.1	17.1
0	134785	582.1	16.9
0	134786	582.1	16.7
0	134787	582.1	16.5
0	134788	582.1	16.3
0	134789	582.1	16.1
0	134790	582.1	15.9
0	134791	582.1	15.7
0	134792	582.1	15.5
0	134793	582.1	15.3
0	134794	582.1	15.1
0	134795	582.1	14.9
0	134796	582.1	14.7
0	134797	582.1	14.5
0	134798	582.1	14.3
0	134799	582.1	14.1
0	134800	582.1	13.9
0	134801	582.1	13.7
0	134802	582.1	13.5
0	134803	582.1	13.3
0	134804	582.1	13.1
0	134805	582.1	12.9
0	134806	582.1	12.7
0	134807	582.1	12.5
0	134808	582.1	12.3
0	134809	582.1	12.1
0	134810	582.1	11.9
0	134811	582.1	11.7
0	134812	582.1	11.5
0	134813	582.1	11.3
0	134814	582.1	11.1
0	134815	582.1	10.9
0	134816	582.1	10.7
0	134817	582.1	10.5
0	134818	582.1	10.3
0	134819	582.1	10.1
0	134820	582.1	9.9
0	134821	582.1	9.7
0	134822	582.1	9.5
0	134823	582.1	9.3
0	134824	582.1	9.1
0	134825	582.1	8.9
0	134826	582.1	8.7
0	134827	582.1	8.5
0	134828	582.1	8.3
0	134829	582.1	8.1
0	134830	582.1	7.9
0	134831	582.1	7.7
0	134832	582.1	7.5
0	134833	582.1	7.3
0	134834	582.1	7.1
0	134835	582.1	6.9
0	134836	582.1	6.7
0	134837	582.1	6.5
0	134838	582.1	6.3
0	134839	582.1	6.1
0	134840	582.1	5.9
0	134841	582.1	5.7
0	134842	582.1	5.5
0	134843	582.1	5.3
0	134844	582.1	5.1
0	134845	582.1	4.9
0	134846	582.1	4.7
0	134847	582.1	4.5
0	134848	582.1	4.3
0	134849	582.1	4.1
0	134850	582.1	3.9
0	134851	582.1	3.7
0	134852	582.1	3.5
0	134853	582.1	3.3
0	134854	582.1	3.1
0	134855	582.1	2.9
0	134856	582.1	2.7
0	134857	582.1	2.5
0	134858	582.1	2.3
0	134859	582.1	2.1
0	134860	582.1	1.9
0	134861	582.1	1.7
0	134862	582.1	1.5
0	134890	582.2	1.4
0	135006	583.4	2.4
0	135007	583.4	2.2
0	135008	583.4	2
0	135009	583.4	1.8
0	135010	583.4	1.6
0	135011	583.4	1.4
0	135032	583.6	1.4
0	135053	583.8	1.4
0	135072	584	1.4
0	135091	584.2	1.4
0	135109	584.4	1.4
0	135127	584.6	1.4
0	135145	584.8	1.4
0	135164	585	1.4
0	143872	629.1	45.3
0	143873	629.1	45.1
0	143874	629.1	44.9
0	143875	629.1	44.7
0	143876	629.1	44.5
0	143877	629.1	44.3
0	143878	629.1	44.1
0	143879	629.1	43.9
0	143880	629.1	43.7
0	143881	629.1	43.5
0	143882	629.1	43.3
0	143883	629.1	43.1
0	143884	629.1	42.9
0	143885	629.1	42.7
0	143886	629.1	42.5
0	143887	629.1	42.3
0	150927	658.1	71.1
0	150928	658.1	70.9
0	150929	658.1	70.7
0	150930	658.1	70.5
0	150931	658.1	70.3
0	150932	658.1	70.1
0	150933	658.1	69.9
0	150934	658.1	69.7
0	150935	658.1	69.5
0	150936	658.1	69.3
0	150937	658.1	69.1
0	150938	658.1	68.9
0	150939	658.1	68.7
0	150940	658.1	68.5
0	150941	658.1	68.3
0	150942	658.1	68.1
0	150943	658.1	67.9
0	150944	658.1	67.7
0	150945	658.1	67.5
0	150946	658.1	67.3
0	150947	658.1	67.1
0	150948	658.1	66.9
0	150949	658.1	66.7
0	150950	658.1	66.5
0	150951	658.1	66.3
0	150952	658.1	66.1
0	150953	658.1	65.9
0	150954	658.1	65.7
0	150955	658.1	65.5
0	150956	658.1	65.3
0	150957	658.1	65.1
0	150958	658.1	64.9
0	150959	658.1	64.7
0	150960	658.1	64.5
0	150961	658.1	64.3
0	150962	658.1	64.1
0	150963	658.1	63.9
0	150964	658.1	63.7
0	150965	658.1	63.5
0	150966	658.1	63.3
0	150967	658.1	63.1
0	150968	658.1	62.9
0	150969	658.1	62.7
0	150970	658.1	62.5
0	150971	658.1	62.3
0	150972	658.1	62.1
0	150973	658.1	61.9
0	150974	658.1	61.7
0	150975	658.1	61.5
0	150976	658.1	61.3
0	150977	658.1	61.1
0	150978	658.1	60.9
0	150979	658.1	60.7
0	150980	658.1	60.5
0	150981	658.1	60.3
0	150982	658.1	60.1
0	150983	658.1	59.9
0	150984	658.1	59.7
0	150985	658.1	59.5
0	150986	658.1	59.3
0	150987	658.1	59.1
0	150988	658.1	58.9
0	150989	658.1	58.7
0	150990	658.1	58.5
0	150991	658.1	58.3
0	150992	658.1	58.1
0	150993	658.1	57.9
0	150994	658.1	57.7
0	150995	658.1	57.5
0	150996	658.1	57.3
0	150997	658.1	57.1
0	150998	658.1	56.9
0	150999	658.1	56.7
0	151000	658.1	56.5
0	151001	658.1	56.3
0	151002	658.1	56.1
0	151003	658.1	55.9
0	151004	658.1	55.7
0	151005	658.1	55.5
0	151006	658.1	55.3
0	151007	658.1	55.1
0	151008	658.1	54.9
0	151009	658.1	54.7
0	151010	658.1	54.5
0	151011	658.1	54.3
0	151012	658.1	54.1
0	151013	658.1	53.9
0	151014	658.1	53.7
0	151015	658.1	53.5
0	151016	658.1	53.3
0	151017	658.1	53.1
0	151018	658.1	52.9
0	151019	658.1	52.7
0	151020	658.1	52.5
0	151021	658.1	52.3
0	151022	658.1	52.1
0	151023	658.1	51.9
0	151024	658.1	51.7
0	151025	658.1	51.5
0	151026	658.1	51.3
0	151027	658.1	51.1
0	151028	658.1	50.9
0	151029	658.1	50.7
0	151030	658.1	50.5
0	151031	658.1	50.3
0	151032	658.1	50.1
0	151033	658.1	49.9
0	151034	658.1	49.7
0	151035	658.1	49.5
0	151036	658.1	49.3
0	151037	658.1	49.1
0	151038	658.1	48.9
0	151039	658.1	48.7
0	151040	658.1	48.5
0	151041	658.1	48.3
0	151042	658.1	48.1
0	151043	658.1	47.9
0	151044	658.1	47.7
0	151045	658.1	47.5
0	151046	658.1	47.3
0	151047	658.1	47.1
0	151048	658.1	46.9
0	151049	658.1	46.7
0	151050	658.1	46.5
0	151051	658.1	46.3
0	151052	658.1	46.1
0	151053	658.1	45.9
0	151054	658.1	45.7
0	151055	658.1	45.5
0	151056	658.1	45.3
0	151057	658.1	45.1
0	151058	658.1	44.9
0	151059	658.1	44.7
0	151060	658.1	44.5
0	151061	658.1	44.3
0	151062	658.1	44.1
0	151063	658.1	43.9
0	151064	658.1	43.7
0	151065	658.1	43.5
0	151066	658.1	43.3
0	151067	658.1	43.1
0	151068	658.1	42.9
0	151069	658.1	42.7
0	151070	658.1	42.5
0	151071	658.1	42.3
0	151072	658.1	42.1
0	151073	658.1	41.9
0	151074	658.1	41.7
0	151075	658.1	41.5
0	151076	658.1	41.3
0	151077	658.1	41.1
0	151078	658.1	40.9
0	151079	658.1	40.7
0	151080	658.1	40.5
0	151081	658.1	40.3
0	151082	658.1	40.1
0	151083	658.1	39.9
0	151084	658.1	39.7
0	151085	658.1	39.5
0	151086	658.1	39.3
0	151087	658.1	39.1
0	151088	658.1	38.9
0	151089	658.1	38.7
0	151090	658.1	38.5
0	151091	658.1	38.3
0	151092	658.1	38.1
0	151093	658.1	37.9
0	151094	658.1	37.7
0	151095	658.1	37.5
0	151096	658.1	37.3
0	151097	658.1	37.1
0	151098	658.1	36.9
0	151099	658.1	36.7
0	151100	658.1	36.5
0	151101	658.1	36.3
0	151102	658.1	36.1
0	151103	658.1	35.9
0	151104	658.1	35.7
0	151105	658.1	35.5
0	151106	658.1	35.3
0	151107	658.1	35.1
0	151108	658.1	34.9
0	151109	658.1	34.7
0	151110	658.1	34.5
0	151111	658.1	34.3
0	151112	658.1	34.1
0	151113	658.1	33.9
0	151114	658.1	33.7
0	151115	658.1	33.5
0	151116	658.1	33.3
0	151117	658.1	33.1
0	151118	658.1	32.9
0	151119	658.1	32.7
0	151120	658.1	32.5
0	151121	658.1	32.3
0	151122	658.1	32.1
0	151123	658.1	31.9
0	151124	658.1	31.7
0	151125	658.1	31.5
0	151126	658.1	31.3
0	151127	658.1	31.1
0	151128	658.1	30.9
0	151129	658.1	30.7
0	151130	658.1	30.5
0	151131	658.1	30.3
0	151132	658.1	30.1
0	151133	658.1	29.9
0	151134	658.1	29.7
0	151135	658.1	29.5
0	151136	658.1	29.3
0	151137	658.1	29.1
0	151138	658.1	28.9
0	151139	658.1	28.7
0	151140	658.1	28.5
0	151141	658.1	28.3
0	154578	661.4	31.4
0	154579	661.4	31.2
0	154580	661.4	31
0	154581	661.4	30.8
0	154582	661.4	30.6
0	154583	661.4	30.4
0	154584	661.4	30.2
0	154585	661.4	30
0	154586	661.4	29.8
0	154587	661.4	29.6
0	154588	661.4	29.4
0	154589	661.4	29.2
0	154590	661.4	29
0	154591	661.4	28.8
0	154592	661.4	28.6
0	154593	661.4	28.4
0	154594	661.4	28.2
0	154595	661.4	28
0	154596	661.4	27.8
0	154597	661.4	27.6
0	154598	661.4	27.4
0	154599	661.4	27.2
0	154600	661.4	27
0	154601	661.4	26.8
0	154602	661.4	26.6
0	154603	661.4	26.4
0	154604	661.4	26.2
0	154605	661.4	26
0	154606	661.4	25.8
0	154607	661.4	25.6
0	154608	661.4	25.4
0	154609	661.4	25.2
0	154610	661.4	25
0	154611	661.4	24.8
0	154612	661.4	24.6
0	154613	661.4	24.4
0	154614	661.4	24.2
0	154615	661.4	24
0	154616	661.4	23.8
0	154617	661.4	23.6
0	154618	661.4	23.4
0	154619	661.4	23.2
0	154620	661.4	23
0	154621	661.4	22.8
0	154622	661.4	22.6
0	154623	661.4	22.4
0	154624	661.4	22.2
0	154625	661.4	22
0	154626	661.4	21.8
0	154627	661.4	21.6
0	154628	661.4	21.4
0	154629	661.4	21.2
0	154630	661.4	21
0	154631	661.4	20.8
0	154632	661.4	20.6
0	154633	661.4	20.4
0	154634	661.4	20.2
0	154635	661.4	20
0	154636	661.4	19.8
0	154637	661.4	19.6
0	154638	661.4	19.4
0	154639	661.4	19.2
0	154640	661.4	19
0	154641	661.4	18.8
0	154642	661.4	18.6
0	154643	661.4	18.4
0	154644	661.4	18.2
0	154645	661.4	18
0	154646	661.4	17.8
0	154647	661.4	17.6
0	154648	661.4	17.4
0	154649	661.4	17.2
0	154650	661.4	17
0	154651	661.4	16.8
0	154652	661.4	16.6
0	154653	661.4	16.4
0	154654	661.4	16.2
0	154655	661.4	16
0	154656	661.4	15.8
0	154657	661.4	15.6
0	154658	661.4	15.4
0	154659	661.4	15.2
0	154660	661.4	15
0	154661	661.4	14.8
0	154662	661.4	14.6
0	154663	661.4	14.4
0	154664	661.4	14.2
0	154665	661.4	14
0	154666	661.4	13.8
0	154667	661.4	13.6
0	154668	661.4	13.4
0	154669	661.4	13.2
0	154670	661.4	13
0	154671	661.4	12.8
0	154672	661.4	12.6
0	154673	661.4	12.4
0	154674	661.4	12.2
0	154675	661.4	12
0	154676	661.4	11.8
0	154677	661.4	11.6
0	154678	661.4	11.4
0	154679	661.4	11.2
0	154680	661.4	11
0	154681	661.4	10.8
0	154682	661.4	10.6
0	154683	661.4	10.4
0	154684	661.4	10.2
0	154685	661.4	10
0	154686	661.4	9.8
0	154687	661.4	9.6
0	154688	661.4	9.4
0	154689	661.4	9.2
0	154690	661.4	9
0	154691	661.4	8.8
0	154692	661.4	8.6
0	154693	661.4	8.4
0	154694	661.4	8.2
0	154695	661.4	8
0	154696	661.4	7.8
0	154697	661.4	7.6
0	154698	661.4	7.4
0	154699	661.4	7.2
0	154700	661.4	7
0	154701	661.4	6.8
0	154702	661.4	6.6
0	154703	661.4	6.4
0	154704	661.4	6.2
0	154705	661.4	6
0	154706	661.4	5.8
0	154707	661.4	5.6
0	154708	661.4	5.4
0	154709	661.4	5.2
0	154710	661.4	5
0	154711	661.4	4.8
0	154712	661.4	4.6
0	154713	661.4	4.4
0	154714	661.4	4.2
0	154715	661.4	4
0	154716	661.4	3.8
0	154717	661.4	3.6
0	154718	661.4	3.4
0	154719	661.4	3.2
0	154720	661.4	3
0	154721	661.4	2.8
0	154722	661.4	2.6
0	154723	661.4	2.4
0	154724	661.4	2.2
0	154725	661.4	2
0	154726	661.4	1.8
0	154727	661.4	1.6
0	154728	661.4	1.4
0	155502	661.6	1.4
0	155526	661.8	1.4
0	155553	662	1.4
0	165727	712.1	51.3
0	165728	712.1	51.1
0	165729	712.1	50.9
0	165730	712.1	50.7
0	165731	712.1	50.5
0	165732	712.1	50.3
0	165733	712.1	50.1
0	165734	712.1	49.9
0	165735	712.1	49.7
0	165736	712.1	49.5
0	165737	712.1	49.3
0	165738	712.1	49.1
0	165739	712.1	48.9
0	165740	712.1	48.7
0	165741	712.1	48.5
0	165742	712.1	48.3
0	165743	712.1	48.1
0	165744	712.1	47.9
0	165745	712.1	47.7
0	165746	712.1	47.5
0	165747	712.1	47.3
0	165748	712.1	47.1
0	165749	712.1	46.9
0	165750	712.1	46.7
0	165751	712.1	46.5
0	165752	712.1	46.3
0	165753	712.1	46.1
0	165754	712.1	45.9
0	165755	712.1	45.7
0	165756	712.1	45.5
0	165757	712.1	45.3
0	165758	712.1	45.1
0	165759	712.1	44.9
0	165760	712.1	44.7
0	165761	712.1	44.5
0	165762	712.1	44.3
0	165763	712.1	44.1
0	165764	712.1	43.9
0	165765	712.1	43.7
0	165766	712.1	43.5
0	165767	712.1	43.3
0	165768	712.1	43.1
0	165769	712.1	42.9
0	165770	712.1	42.7
0	165771	712.1	42.5
0	165772	712.1	42.3
0	165773	712.1	42.1
0	165774	712.1	41.9
0	165775	712.1	41.7
0	165776	712.1	41.5
0	165777	712.1	41.3
0	165778	712.1	41.1
0	165779	712.1	40.9
0	165780	712.1	40.7
0	165781	712.1	40.5
0	165782	712.1	40.3
0	165783	712.1	40.1
0	165784	712.1	39.9
0	165785	712.1	39.7
0	165786	712.1	39.5
0	165787	712.1	39.3
0	165788	712.1	39.1
0	165789	712.1	38.9
0	165790	712.1	38.7
0	165791	712.1	38.5
0	165792	712.1	38.3
0	165793	712.1	38.1
0	165794	712.1	37.9
0	165795	712.1	37.7
0	165796	712.1	37.5
0	165797	712.1	37.3
0	165798	712.1	37.1
0	165799	712.1	36.9
0	165800	712.1	36.7
0	165801	712.1	36.5
0	165802	712.1	36.3
0	165803	712.1	36.1
0	165804	712.1	35.9
0	165805	712.1	35.7
0	165806	712.1	35.5
0	165807	712.1	35.3
0	165808	712.1	35.1
0	165809	712.1	34.9
0	165810	712.1	34.7
0	165811	712.1	34.5
0	165812	712.1	34.3
0	165813	712.1	34.1
0	165814	712.1	33.9
0	165815	712.1	33.7
0	165816	712.1	33.5
0	165817	712.1	33.3
0	165818	712.1	33.1
0	165819	712.1	32.9
0	165820	712.1	32.7
0	165821	712.1	32.5
0	165822	712.1	32.3
0	165823	712.1	32.1
0	165824	712.1	31.9
0	165825	712.1	31.7
0	165826	712.1	31.5
0	165827	712.1	31.3
0	165828	712.1	31.1
0	165829	712.1	30.9
0	165830	712.1	30.7
0	165831	712.1	30.5
0	165832	712.1	30.3
0	165833	712.1	30.1
0	165834	712.1	29.9
0	165835	712.1	29.7
0	165836	712.1	29.5
0	165837	712.1	29.3
0	165838	712.1	29.1
0	165839	712.1	28.9
0	165840	712.1	28.7
0	165841	712.1	28.5
0	165842	712.1	28.3
0	165843	712.1	28.1
0	165844	712.1	27.9
0	165845	712.1	27.7
0	165846	712.1	27.5
0	165847	712.1	27.3
0	165848	712.1	27.1
0	165849	712.1	26.9
0	165850	712.1	26.7
0	165851	712.1	26.5
0	165852	712.1	26.3
0	165853	712.1	26.1
0	165854	712.1	25.9
0	165855	712.1	25.7
0	165856	712.1	25.5
0	165857	712.1	25.3
0	165858	712.1	25.1
0	165859	712.1	24.9
0	165860	712.1	24.7
0	165861	712.1	24.5
0	165862	712.1	24.3
0	165863	712.1	24.1
0	165864	712.1	23.9
0	165865	712.1	23.7
0	165866	712.1	23.5
0	165867	712.1	23.3
0	165868	712.1	23.1
0	165869	712.1	22.9
0	165870	712.1	22.7
0	165871	712.1	22.5
0	165872	712.1	22.3
0	165873	712.1	22.1
0	165874	712.1	21.9
0	165875	712.1	21.7
0	165876	712.1	21.5
0	165877	712.1	21.3
0	165878	712.1	21.1
0	165879	712.1	20.9
0	165880	712.1	20.7
0	165881	712.1	20.5
0	165882	712.1	20.3
0	165883	712.1	20.1
0	165884	712.1	19.9
0	165885	712.1	19.7
0	165886	712.1	19.5
0	165887	712.1	19.3
0	165888	712.1	19.1
0	165889	712.1	18.9
0	165890	712.1	18.7
0	165891	712.1	18.5
0	165892	712.1	18.3
0	165893	712.1	18.1
0	165894	712.1	17.9
0	165895	712.1	17.7
0	165896	712.1	17.5
0	165897	712.1	17.3
0	165898	712.1	17.1
0	165899	712.1	16.9
0	165900	712.1	16.7
0	165901	712.1	16.5
0	165902	712.1	16.3
0	165903	712.1	16.1
0	165904	712.1	15.9
0	165905	712.1	15.7
0	165906	712.1	15.5
0	165907	712.1	15.3
0	165908	712.1	15.1
0	165909	712.1	14.9
0	165910	712.1	14.7
0	165911	712.1	14.5
0	165912	712.1	14.3
0	165913	712.1	14.1
0	165914	712.1	13.9
0	165915	712.1	13.7
0	165916	712.1	13.5
0	165917	712.1	13.3
0	165918	712.1	13.1
0	165919	712.1	12.9
0	165920	712.1	12.7
0	165921	712.1	12.5
0	165922	712.1	12.3
0	165923	712.1	12.1
0	165924	712.1	11.9
0	165925	712.1	11.7
0	165926	712.1	11.5
0	165927	712.1	11.3
0	165928	712.1	11.1
0	165929	712.1	10.9
0	165930	712.1	10.7
0	165931	712.1	10.5
0	165932	712.1	10.3
0	165933	712.1	10.1
0	165934	712.1	9.9
0	165935	712.1	9.7
0	165936	712.1	9.5
0	165937	712.1	9.3
0	165938	712.1	9.1
0	165939	712.1	8.9
0	165940	712.1	8.7
0	165941	712.1	8.5
0	165942	712.1	8.3
0	166204	713.3	9.3
0	166205	713.3	9.1
0	166206	713.3	8.9
0	166207	713.3	8.7
0	166208	713.3	8.5
0	166209	713.3	8.3
0	166210	713.3	8.1
0	166211	713.3	7.9
0	166212	713.3	7.7
0	166213	713.3	7.5
0	166214	713.3	7.3
0	166215	713.3	7.1
0	166216	713.3	6.9
0	166217	713.3	6.7
0	166218	713.3	6.5
0	166219	713.3	6.3
0	166220	713.3	6.1
0	166221	713.3	5.9
0	166222	713.3	5.7
0	166223	713.3	5.5
0	166224	713.3	5.3
0	166225	713.3	5.1
0	166226	713.3	4.9
0	166227	713.3	4.7
0	166228	713.3	4.5
0	166229	713.3	4.3
0	166230	713.3	4.1
0	166231	713.3	3.9
0	166232	713.3	3.7
0	166233	713.3	3.5
0	169417	724.1	14.1
0	169418	724.1	13.9
0	169419	724.1	13.7
0	169420	724.1	13.5
0	169421	724.1	13.3
0	169422	724.1	13.1
0	169423	724.1	12.9
0	169424	724.1	12.7
0	169425	724.1	12.5
0	169426	724.1	12.3
0	169427	724.1	12.1
0	169428	724.1	11.9
0	169429	724.1	11.7
0	169430	724.1	11.5
0	169431	724.1	11.3
0	169432	724.1	11.1
0	169433	724.1	10.9
0	169434	724.1	10.7
0	169435	724.1	10.5
0	169436	724.1	10.3
0	169437	724.1	10.1
0	169438	724.1	9.9
0	169439	724.1	9.7
0	169440	724.1	9.5
0	169441	724.1	9.3
0	169442	724.1	9.1
0	169443	724.1	8.9
0	169444	724.1	8.7
0	169445	724.1	8.5
0	169446	724.1	8.3
0	169447	724.1	8.1
0	169448	724.1	7.9
0	169449	724.1	7.7
0	169450	724.1	7.5
0	169451	724.1	7.3
0	169452	724.1	7.1
0	169453	724.1	6.9
0	169454	724.1	6.7
0	169455	724.1	6.5
0	169456	724.1	6.3
0	169457	724.1	6.1
0	169458	724.1	5.9
0	169459	724.1	5.7
0	169460	724.1	5.5
0	169461	724.1	5.3
0	169462	724.1	5.1
0	169463	724.1	4.9
0	169464	724.1	4.7
0	169465	724.1	4.5
0	177289	777.1	56.1
0	177290	777.1	55.9
0	177291	777.1	55.7
0	177292	777.1	55.5
0	177293	777.1	55.3
0	179910	781.2	61.4
0	179911	781.2	61.2
0	179912	781.2	61
0	179913	781.2	60.8
0	179914	781.2	60.6
0	179915	781.2	60.4
0	179916	781.2	59.2
0	179917	781.2	59
0	179918	781.2	58.8
0	179919	781.2	58.6
0	179920	781.2	58.4
0	179921	781.2	58.2
0	179922	781.2	58
0	179923	781.2	57.8
0	179924	781.2	57.6
0	179925	781.2	57.4
0	179926	781.2	57.2
0	179927	781.2	57
0	179928	781.2	56.8
0	179929	781.2	56.6
0	179930	781.2	56.4
0	179931	781.2	56.2
0	179932	781.2	56
0	179933	781.2	55.8
0	179934	781.2	55.6
0	179935	781.2	55.4
0	179936	781.2	55.2
0	179937	781.2	55
0	179938	781.2	54.8
0	179939	781.2	54.6
0	179940	781.2	54.4
0	179941	781.2	54.2
0	179942	781.2	54
0	179943	781.2	53.8
0	179944	781.2	53.6
0	179945	781.2	53.4
0	179946	781.2	53.2
0	179947	781.2	53
0	179948	781.2	52.8
0	179949	781.2	52.6
0	179950	781.2	52.4
0	179951	781.2	52.2
0	179952	781.2	52
0	179953	781.2	51.8
0	179954	781.2	51.6
0	179955	781.2	51.4
0	179956	781.2	51.2
0	179957	781.2	51
0	179958	781.2	50.8
0	179959	781.2	50.6
0	179960	781.2	50.4
0	179961	781.2	50.2
0	179962	781.2	50
0	179963	781.2	49.8
0	179964	781.2	49.6
0	179965	781.2	49.4
0	179966	781.2	49.2
0	179967	781.2	49
0	179968	781.2	48.8
0	179969	781.2	48.6
0	179970	781.2	48.4
0	179971	781.2	48.2
0	179972	781.2	48
0	179973	781.2	47.8
0	179974	781.2	47.6
0	179975	781.2	47.4
0	179976	781.2	47.2
0	179977	781.2	47
0	179978	781.2	46.8
0	179979	781.2	46.6
0	179980	781.2	46.4
0	179981	781.2	46.2
0	179982	781.2	46
0	179983	781.2	45.8
0	179984	781.2	45.6
0	179985	781.2	45.4
0	179986	781.2	45.2
0	179987	781.2	45
0	179988	781.2	44.8
0	179989	781.2	44.6
0	179990	781.2	44.4
0	179991	781.2	44.2
0	179992	781.2	44
0	179993	781.2	43.8
0	179994	781.2	43.6
0	179995	781.2	43.4
0	179996	781.2	43.2
0	179997	781.2	43
0	179998	781.2	42.8
0	179999	781.2	42.6
0	180000	781.2	42.4
0	180001	781.2	42.2
0	180002	781.2	42
0	180003	781.2	41.8
0	180004	781.2	41.6
0	180005	781.2	41.4
0	180006	781.2	41.2
0	180007	781.2	41
0	180008	781.2	40.8
0	180009	781.2	40.6
0	180010	781.2	40.4
0	180011	781.2	40.2
0	180012	781.2	40
0	180013	781.2	39.8
0	180014	781.2	39.6
0	180015	781.2	39.4
0	180016	781.2	39.2
0	180017	781.2	39
0	180018	781.2	38.8
0	180019	781.2	38.6
0	180020	781.2	38.4
0	180021	781.2	38.2
0	180022	781.2	38
0	180023	781.2	37.8
0	180024	781.2	37.6
0	180025	781.2	37.4
0	180026	781.2	37.2
0	180027	781.2	37
0	180028	781.2	36.8
0	180029	781.2	36.6
0	180030	781.2	36.4
0	180031	781.2	36.2
0	180032	781.2	36
0	180033	781.2	35.8
0	180034	781.2	35.6
0	180035	781.2	35.4
0	180036	781.2	35.2
0	180037	781.2	35
0	180038	781.2	34.8
0	180039	781.2	34.6
0	180040	781.2	34.4
0	180041	781.2	34.2
0	180042	781.2	34
0	180043	781.2	33.8
0	180044	781.2	33.6
0	180045	781.2	33.4
0	180046	781.2	33.2
0	180047	781.2	33
0	180048	781.2	32.8
0	180049	781.2	32.6
0	180050	781.2	32.4
0	180051	781.2	32.2
0	180052	781.2	32
0	180053	781.2	31.8
0	180054	781.2	31.6
0	180055	781.2	31.4
0	180056	781.2	31.2
0	180057	781.2	31
0	180058	781.2	30.8
0	180059	781.2	30.6
0	180060	781.2	30.4
0	180061	781.2	30.2
0	180062	781.2	30
0	180063	781.2	29.8
0	180064	781.2	29.6
0	180065	781.2	29.4
0	180066	781.2	29.2
0	180067	781.2	29
0	180068	781.2	28.8
0	180069	781.2	28.6
0	180070	781.2	28.4
0	180071	781.2	28.2
0	180072	781.2	28
0	180073	781.2	27.8
0	180074	781.2	27.6
0	180075	781.2	27.4
0	180076	781.2	27.2
0	180077	781.2	27
0	180078	781.2	26.8
0	180079	781.2	26.6
0	180080	781.2	26.4
0	180081	781.2	26.2
0	180082	781.2	26
0	180083	781.2	25.8
0	180084	781.2	25.6
0	180085	781.2	25.4
0	180086	781.2	25.2
0	180087	781.2	25
0	180088	781.2	24.8
0	180089	781.2	24.6
0	180090	781.2	24.4
0	180091	781.2	24.2
0	180092	781.2	24
0	180093	781.2	23.8
0	180094	781.2	23.6
0	180095	781.2	23.4
0	180096	781.2	23.2
0	180097	781.2	23
0	180098	781.2	22.8
0	180099	781.2	22.6
0	180100	781.2	22.4
0	180101	781.2	22.2
0	180102	781.2	22
0	180103	781.2	21.8
0	180104	781.2	21.6
0	180105	781.2	21.4
0	180106	781.2	21.2
0	180107	781.2	21
0	180108	781.2	20.8
0	180109	781.2	20.6
0	180110	781.2	20.4
0	180111	781.2	20.2
0	180112	781.2	20
0	180113	781.2	19.8
0	180114	781.2	19.6
0	180115	781.2	19.4
0	180116	781.2	19.2
0	180117	781.2	19
0	180118	781.2	18.8
0	180119	781.2	18.6
0	180120	781.2	18.4
0	180121	781.2	18.2
0	180122	781.2	18
0	180123	781.2	17.8
0	180124	781.2	17.6
0	180125	781.2	17.4
0	180126	781.2	17.2
0	180127	781.2	17
0	180128	781.2	16.8
0	180129	781.2	16.6
0	180130	781.2	16.4
0	180131	781.2	16.2
0	180132	781.2	16
0	180133	781.2	15.8
0	180134	781.2	15.6
0	180135	781.2	15.4
0	180136	781.2	15.2
0	180137	781.2	15
0	180138	781.2	14.8
0	180139	781.2	14.6
0	180140	781.2	14.4
0	180141	781.2	14.2
0	180142	781.2	14
0	180143	781.2	13.8
0	180144	781.2	13.6
0	180145	781.2	13.4
0	180146	781.2	13.2
0	180147	781.2	13
0	180148	781.2	12.8
0	180149	781.2	12.6
0	180150	781.2	12.4
0	180151	781.2	12.2
0	180152	781.2	12
0	180153	781.2	11.8
0	180154	781.2	11.6
0	180155	781.2	11.4
0	180156	781.2	11.2
0	180157	781.2	11
0	180158	781.2	10.8
0	180159	781.2	10.6
0	180160	781.2	10.4
0	180161	781.2	10.2
0	180162	781.2	10
0	180163	781.2	9.8
0	180164	781.2	9.6
0	180165	781.2	9.4
0	187844	805.1	33.1
0	187845	805.1	32.9
0	187846	805.1	32.7
0	187847	805.1	32.5
0	187848	805.1	32.3
0	187849	805.1	32.1
0	187850	805.1	31.9
0	187851	805.1	31.7
0	187852	805.1	31.5
0	187853	805.1	31.3
0	187854	805.1	31.1
0	187855	805.1	30.9
0	187856	805.1	30.7
0	187857	805.1	30.5
0	187858	805.1	30.3
0	187859	805.1	30.1
0	187860	805.1	29.9
0	187861	805.1	29.7
0	187862	805.1	29.5
0	187863	805.1	29.3
0	187864	805.1	29.1
0	187865	805.1	28.9
0	187866	805.1	28.7
0	187867	805.1	28.5
0	187868	805.1	28.3
0	187869	805.1	28.1
0	187870	805.1	27.9
0	187871	805.1	27.7
0	187872	805.1	27.5
0	187873	805.1	27.3
0	187874	805.1	27.1
0	187875	805.1	26.9
0	187876	805.1	26.7
0	187877	805.1	26.5
0	187878	805.1	26.3
0	187879	805.1	26.1
0	187880	805.1	25.9
0	187881	805.1	25.7
0	187882	805.1	25.5
0	187883	805.1	25.3
0	187884	805.1	25.1
0	187885	805.1	24.9
0	187886	805.1	24.7
0	187887	805.1	24.5
0	187888	805.1	24.3
0	187889	805.1	24.1
0	187890	805.1	23.9
0	187891	805.1	23.7
0	187892	805.1	23.5
0	187893	805.1	23.3
0	187894	805.1	23.1
0	187895	805.1	22.9
0	187896	805.1	22.7
0	187897	805.1	22.5
0	187898	805.1	22.3
0	187899	805.1	22.1
0	187900	805.1	21.9
0	187901	805.1	21.7
0	187902	805.1	21.5
0	187903	805.1	21.3
0	187904	805.1	21.1
0	187905	805.1	20.9
0	187906	805.1	20.7
0	187907	805.1	20.5
0	187908	805.1	20.3
0	187909	805.1	20.1
0	187910	805.1	19.9
0	187911	805.1	19.7
0	187912	805.1	19.5
0	187913	805.1	19.3
0	187914	805.1	19.1
0	187915	805.1	18.9
0	187916	805.1	18.7
0	187917	805.1	18.5
0	187918	805.1	18.3
0	187919	805.1	18.1
0	187920	805.1	17.9
0	187921	805.1	17.7
0	187922	805.1	17.5
0	187923	805.1	17.3
0	187924	805.1	17.1
0	187925	805.1	16.9
0	187926	805.1	16.7
0	187927	805.1	16.5
0	187928	805.1	16.3
0	187929	805.1	16.1
0	187930	805.1	15.9
0	187931	805.1	15.7
0	187932	805.1	15.5
0	187933	805.1	15.3
0	187934	805.1	15.1
0	187935	805.1	14.9
0	187936	805.1	14.7
0	187937	805.1	14.5
0	187938	805.1	14.3
0	187939	805.1	14.1
0	187940	805.1	13.9
0	187941	805.1	13.7
0	187942	805.1	13.5
0	187943	805.1	13.3
0	187944	805.1	13.1
0	187945	805.1	12.9
0	187946	805.1	12.7
0	187947	805.1	12.5
0	187948	805.1	12.3
0	187949	805.1	12.1
0	187950	805.1	11.9
0	187951	805.1	11.7
0	187952	805.1	11.5
0	187953	805.1	11.3
0	187954	805.1	11.1
0	187955	805.1	10.9
0	187956	805.1	10.7
0	187957	805.1	10.5
0	187958	805.1	10.3
0	187959	805.1	10.1
0	187960	805.1	9.9
0	187961	805.1	9.7
0	187962	805.1	9.5
0	187963	805.1	9.3
0	187964	805.1	9.1
0	187965	805.1	8.9
0	187966	805.1	8.7
0	187967	805.1	8.5
0	187968	805.1	8.3
0	187969	805.1	8.1
0	187970	805.1	7.9
0	187971	805.1	7.7
0	187972	805.1	7.5
0	187973	805.1	7.3
0	195271	844.1	46.1
0	195272	844.1	45.9
0	195273	844.1	45.7
0	195274	844.1	45.5
0	195275	844.1	45.3
0	195276	844.1	45.1
0	195277	844.1	44.9
0	195278	844.1	44.7
0	195279	844.1	44.5
0	195280	844.1	44.3
0	195281	844.1	44.1
0	195282	844.1	43.9
0	195283	844.1	43.7
0	195284	844.1	43.5
0	195285	844.1	43.3
0	195286	844.1	43.1
0	195287	844.1	42.9
0	195288	844.1	42.7
0	195289	844.1	42.5
0	195290	844.1	42.3
0	195291	844.1	42.1
0	195292	844.1	41.9
0	195293	844.1	41.7
0	195294	844.1	41.5
0	195295	844.1	41.3
0	195296	844.1	41.1
0	195297	844.1	40.9
0	195298	844.1	40.7
0	195299	844.1	40.5
0	195300	844.1	40.3
0	195301	844.1	40.1
0	195302	844.1	39.9
0	195303	844.1	39.7
0	195304	844.1	39.5
0	195305	844.1	39.3
0	195306	844.1	39.1
0	195307	844.1	38.9
0	195308	844.1	38.7
0	195309	844.1	38.5
0	195310	844.1	38.3
0	195311	844.1	38.1
0	195312	844.1	37.9
0	195313	844.1	37.7
0	195314	844.1	37.5
0	195315	844.1	37.3
0	195316	844.1	37.1
0	195317	844.1	36.9
0	195318	844.1	36.7
0	195319	844.1	36.5
0	195320	844.1	36.3
0	195321	844.1	36.1
0	195322	844.1	35.9
0	195323	844.1	35.7
0	195324	844.1	35.5
0	195325	844.1	35.3
0	195326	844.1	35.1
0	195327	844.1	34.9
0	195328	844.1	34.7
0	195329	844.1	34.5
0	195330	844.1	34.3
0	195331	844.1	34.1
0	195332	844.1	33.9
0	195333	844.1	33.7
0	195334	844.1	33.5
0	195335	844.1	33.3
0	195336	844.1	33.1
0	195337	844.1	32.9
0	195338	844.1	32.7
0	195339	844.1	32.5
0	195340	844.1	32.3
0	195341	844.1	32.1
0	195342	844.1	31.9
0	195343	844.1	31.7
0	195344	844.1	31.5
0	195345	844.1	31.3
0	195346	844.1	31.1
0	195347	844.1	30.9
0	195348	844.1	30.7
0	195349	844.1	30.5
0	195350	844.1	30.3
0	195351	844.1	30.1
0	195352	844.1	29.9
0	195353	844.1	29.7
0	195354	844.1	29.5
0	195355	844.1	29.3
0	195356	844.1	29.1
0	195357	844.1	28.9
0	195358	844.1	28.7
0	195359	844.1	28.5
0	195360	844.1	28.3
0	195361	844.1	28.1
0	195362	844.1	27.9
0	195363	844.1	27.7
0	195364	844.1	27.5
0	195365	844.1	27.3
0	195366	844.1	27.1
0	195367	844.1	26.9
0	195368	844.1	26.7
0	195369	844.1	26.5
0	195370	844.1	26.3
0	195371	844.1	26.1
0	195372	844.1	25.9
0	195373	844.1	25.7
0	195374	844.1	25.5
0	195375	844.1	25.3
0	195376	844.1	25.1
0	195377	844.1	24.9
0	195378	844.1	24.7
0	195379	844.1	24.5
0	195380	844.1	24.3
0	195381	844.1	24.1
0	195382	844.1	23.9
0	195383	844.1	23.7
0	195384	844.1	23.5
0	195385	844.1	23.3
0	195386	844.1	23.1
0	195387	844.1	22.9
0	195388	844.1	22.7
0	195389	844.1	22.5
0	195390	844.1	22.3
0	195391	844.1	22.1
0	195392	844.1	21.9
0	195393	844.1	21.7
0	195394	844.1	21.5
0	195395	844.1	21.3
0	195396	844.1	21.1
0	195397	844.1	20.9
0	195398	844.1	20.7
0	195399	844.1	20.5
0	195400	844.1	20.3
0	195401	844.1	20.1
0	195402	844.1	19.9
0	195403	844.1	19.7
0	195404	844.1	19.5
0	195405	844.1	19.3
0	195406	844.1	19.1
0	195407	844.1	18.9
0	195408	844.1	18.7
0	195409	844.1	18.5
0	195410	844.1	18.3
0	195411	844.1	18.1
0	195412	844.1	17.9
0	195413	844.1	17.7
0	195414	844.1	17.5
0	195415	844.1	17.3
0	195416	844.1	17.1
0	195417	844.1	16.9
0	195418	844.1	16.7
0	195419	844.1	16.5
0	195420	844.1	16.3
0	195421	844.1	16.1
0	195422	844.1	15.9
0	195423	844.1	15.7
0	195424	844.1	15.5
0	195425	844.1	15.3
0	195426	844.1	15.1
0	195427	844.1	14.9
0	195428	844.1	14.7
0	195429	844.1	14.5
0	195430	844.1	14.3
0	195431	844.1	14.1
0	195432	844.1	13.9
0	195433	844.1	13.7
0	195434	844.1	13.5
0	195435	844.1	13.3
0	195436	844.1	13.1
0	195437	844.1	12.9
0	195438	844.1	12.7
0	195439	844.1	12.5
0	195440	844.1	12.3
0	195441	844.1	12.1
0	195442	844.1	11.9
0	195443	844.1	11.7
0	195444	844.1	11.5
0	195445	844.1	11.3
0	195446	844.1	11.1
0	195447	844.1	10.9
0	195448	844.1	10.7
0	195449	844.1	10.5
0	195450	844.1	10.3
0	195451	844.1	10.1
0	195452	844.1	9.9
0	195453	844.1	9.7
0	195454	844.1	9.5
0	207948	880.3	45.3
0	207949	880.3	45.1
0	207950	880.3	44.9
0	207951	880.3	44.7
0	207952	880.3	44.5
0	207953	880.3	44.3
0	207954	880.3	44.1
0	207955	880.3	43.9
0	207956	880.3	43.7
0	207957	880.3	43.5
0	207958	880.3	43.3
0	207959	880.3	43.1
0	207960	880.3	42.9
0	207961	880.3	42.7
0	207962	880.3	42.5
0	207963	880.3	42.3
0	207964	880.3	42.1
0	207965	880.3	41.9
0	207966	880.3	41.7
0	207967	880.3	41.5
0	207968	880.3	41.3
0	207969	880.3	41.1
0	207970	880.3	40.9
0	207971	880.3	40.7
0	207972	880.3	40.5
0	207973	880.3	40.3
0	207974	880.3	40.1
0	207975	880.3	39.9
0	207976	880.3	39.7
0	207977	880.3	39.5
0	207978	880.3	39.3
0	207979	880.3	39.1
0	207980	880.3	38.9
0	207981	880.3	38.7
0	207982	880.3	38.5
0	207983	880.3	38.3
0	207984	880.3	38.1
0	207985	880.3	37.9
0	207986	880.3	37.7
0	207987	880.3	37.5
0	207988	880.3	37.3
0	207989	880.3	37.1
0	207990	880.3	36.9
0	207991	880.3	36.7
0	207992	880.3	36.5
0	207993	880.3	36.3
0	207994	880.3	36.1
0	207995	880.3	35.9
0	207996	880.3	35.7
0	207997	880.3	35.5
0	207998	880.3	45.5
0	207999	880.3	35.3
0	208000	880.3	35.1
0	208001	880.3	34.9
0	208002	880.3	34.7
0	208003	880.3	34.5
0	208004	880.3	34.3
0	208005	880.3	34.1
0	208006	880.3	33.9
0	208007	880.3	33.7
0	208008	880.3	33.5
0	208009	880.3	33.3
0	208010	880.3	33.1
0	208011	880.3	32.9
0	208012	880.3	32.7
0	208013	880.3	32.5
0	208014	880.3	32.3
0	208015	880.3	32.1
0	208016	880.3	31.9
0	208017	880.3	31.7
0	208018	880.3	31.5
0	208019	880.3	31.3
0	208020	880.3	31.1
0	208021	880.3	30.9
0	208022	880.3	30.7
0	208023	880.3	30.5
0	208024	880.3	30.3
0	208025	880.3	30.1
0	208026	880.3	29.9
0	208027	880.3	29.7
0	208028	880.3	29.5
0	208029	880.3	29.3
0	208030	880.3	29.1
0	208031	880.3	28.9
0	208032	880.3	28.7
0	208033	880.3	28.5
0	208034	880.3	28.3
0	208035	880.3	28.1
0	208036	880.3	27.9
0	208037	880.3	27.7
0	208038	880.3	27.5
0	208039	880.3	27.3
0	208040	880.3	27.1
0	208041	880.3	26.9
0	208042	880.3	26.7
0	208043	880.3	26.5
0	208044	880.3	26.3
0	208045	880.3	26.1
0	208046	880.3	25.9
0	208047	880.3	25.7
0	208048	880.3	25.5
0	208049	880.3	25.3
0	208050	880.3	25.1
0	208051	880.3	24.9
0	208052	880.3	24.7
0	208053	880.3	24.5
0	208054	880.3	24.3
0	208055	880.3	24.1
0	208056	880.3	23.9
0	208057	880.3	23.7
0	208058	880.3	23.5
0	208059	880.3	23.3
0	208060	880.3	23.1
0	208061	880.3	22.9
0	208062	880.3	22.7
0	208063	880.3	22.5
0	208064	880.3	22.3
0	208065	880.3	22.1
0	208066	880.3	21.9
0	208067	880.3	21.7
0	208068	880.3	21.5
0	208069	880.3	21.3
0	208070	880.3	21.1
0	208071	880.3	20.9
0	208072	880.3	20.7
0	208073	880.3	20.5
0	208074	880.3	20.3
0	208075	880.3	20.1
0	208076	880.3	19.9
0	208077	880.3	19.7
0	208078	880.3	19.5
0	208079	880.3	19.3
0	208080	880.3	19.1
0	208081	880.3	18.9
0	208082	880.3	18.7
0	208083	880.3	18.5
0	208084	880.3	18.3
0	208085	880.3	18.1
0	208086	880.3	17.9
0	208087	880.3	17.7
0	208088	880.3	17.5
0	208089	880.3	17.3
0	208090	880.3	17.1
0	208091	880.3	16.9
0	208092	880.3	16.7
0	208093	880.3	16.5
0	208094	880.3	16.3
0	208095	880.3	16.1
0	208096	880.3	15.9
0	208097	880.3	15.7
0	208098	880.3	15.5
0	208099	880.3	15.3
0	208100	880.3	15.1
0	208101	880.3	14.9
0	208102	880.3	14.7
0	208103	880.3	14.5
0	208104	880.3	14.3
0	208105	880.3	14.1
0	208106	880.3	13.9
0	208107	880.3	13.7
0	208108	880.3	13.5
0	208109	880.3	13.3
0	208110	880.3	13.1
0	208111	880.3	12.9
0	208112	880.3	12.7
0	208113	880.3	12.5
0	208114	880.3	12.3
0	208115	880.3	12.1
0	208116	880.3	11.9
0	208117	880.3	11.7
0	208118	880.3	11.5
0	208119	880.3	11.3
0	208120	880.3	11.1
0	208121	880.3	10.9
0	208122	880.3	10.7
0	208123	880.3	10.5
0	208124	880.3	10.3
0	208125	880.3	10.1
0	208126	880.3	9.9
0	208127	880.3	9.7
0	208128	880.3	9.5
0	208129	880.3	9.3
0	208130	880.3	9.1
0	208131	880.3	8.9
0	208132	880.3	8.7
0	208133	880.3	8.5
0	208134	880.3	8.3
0	208135	880.3	8.1
0	208136	880.3	7.9
0	208137	880.3	7.7
0	208138	880.3	7.5
0	208139	880.3	7.3
0	208140	880.3	7.1
0	208141	880.3	6.9
0	208142	880.3	6.7
0	208143	880.3	6.5
0	208144	880.3	6.3
0	208145	880.3	6.1
0	208146	880.3	5.9
0	208147	880.3	5.7
0	208148	880.3	5.5
0	208149	880.3	5.3
0	208150	880.3	5.1
0	208151	880.3	4.9
0	208152	880.3	4.7
0	208153	880.3	4.5
0	208297	880.4	4.4
0	208298	880.4	4.2
0	208299	880.4	4
0	208300	880.4	3.8
0	208301	880.4	3.6
0	208302	880.4	3.4
0	208303	880.4	3.2
0	208304	880.4	3
0	208305	880.4	2.8
0	208306	880.4	2.6
0	208307	880.4	2.4
0	208308	880.4	2.2
0	208309	880.4	2
0	208310	880.4	1.8
0	208311	880.4	1.6
0	208312	880.4	1.4
0	208344	880.6	1.4
0	208376	880.8	1.4
0	208410	881	1.4
0	208695	881.2	1.4
0	209786	881.4	1.4
0	209865	881.6	1.4
0	209899	881.8	1.4
0	209932	882	1.4
0	209984	882.2	1.4
0	210007	882.4	1.4
0	210474	882.6	1.4
0	210499	882.8	1.4
0	210527	883	1.4
0	216227	899.1	16.1
0	216228	899.1	15.9
0	216229	899.1	15.7
0	216230	899.1	15.5
0	216231	899.1	15.3
0	216232	899.1	15.1
0	216233	899.1	14.9
0	216234	899.1	14.7
0	216235	899.1	14.5
0	216236	899.1	14.3
0	216237	899.1	14.1
0	216238	899.1	13.9
0	216239	899.1	13.7
0	216240	899.1	13.5
0	216241	899.1	13.3
0	216242	899.1	13.1
0	216243	899.1	12.9
0	216244	899.1	12.7
0	216245	899.1	12.5
0	216246	899.1	12.3
0	218596	918.1	36.3
0	218597	918.1	31.1
0	218598	918.1	36.1
0	218599	918.1	35.9
0	218600	918.1	35.7
0	218601	918.1	35.5
0	218602	918.1	35.3
0	218603	918.1	30.9
0	218604	918.1	30.7
0	218605	918.1	30.5
0	218606	918.1	30.3
0	218607	918.1	30.1
0	218608	918.1	29.9
0	218609	918.1	29.7
0	218610	918.1	29.5
0	218611	918.1	29.3
0	218612	918.1	29.1
0	218613	918.1	28.9
0	218614	918.1	28.7
0	218615	918.1	28.5
0	218616	918.1	28.3
0	229371	958.1	68.1
0	229372	958.1	67.9
0	229373	958.1	67.7
0	229374	958.1	67.5
0	229375	958.1	67.3
0	229376	958.1	67.1
0	229377	958.1	66.9
0	229378	958.1	66.7
0	229379	958.1	66.5
0	229380	958.1	66.3
0	229381	958.1	66.1
0	229382	958.1	65.9
0	229383	958.1	65.7
0	229384	958.1	65.5
0	229385	958.1	65.3
0	229386	958.1	65.1
0	229387	958.1	64.9
0	229388	958.1	64.7
0	229389	958.1	64.5
0	229390	958.1	64.3
0	229391	958.1	64.1
0	229392	958.1	63.9
0	229393	958.1	63.7
0	229394	958.1	63.5
0	229395	958.1	63.3
0	229396	958.1	63.1
0	229397	958.1	62.9
0	229398	958.1	62.7
0	229399	958.1	62.5
0	229400	958.1	62.3
0	229401	958.1	62.1
0	229402	958.1	61.9
0	229403	958.1	61.7
0	229404	958.1	61.5
0	229405	958.1	61.3
0	229406	958.1	61.1
0	229407	958.1	60.9
0	229408	958.1	60.7
0	229409	958.1	60.5
0	229410	958.1	60.3
0	229411	958.1	60.1
0	229412	958.1	59.9
0	229413	958.1	59.7
0	229414	958.1	59.5
0	229415	958.1	59.3
0	229416	958.1	59.1
0	229417	958.1	58.9
0	229418	958.1	58.7
0	229419	958.1	58.5
0	229420	958.1	58.3
0	229421	958.1	58.1
0	229422	958.1	57.9
0	229423	958.1	57.7
0	229424	958.1	57.5
0	229425	958.1	57.3
0	229426	958.1	57.1
0	229427	958.1	56.9
0	229428	958.1	56.7
0	229429	958.1	56.5
0	229430	958.1	56.3
0	229431	958.1	56.1
0	229432	958.1	55.9
0	229433	958.1	55.7
0	229434	958.1	55.5
0	229435	958.1	55.3
0	229436	958.1	55.1
0	229437	958.1	54.9
0	229438	958.1	54.7
0	229439	958.1	54.5
0	229440	958.1	54.3
0	229441	958.1	54.1
0	229442	958.1	53.9
0	229443	958.1	53.7
0	229444	958.1	53.5
0	229445	958.1	53.3
0	229446	958.1	53.1
0	229447	958.1	52.9
0	229448	958.1	52.7
0	229449	958.1	52.5
0	229450	958.1	52.3
0	229451	958.1	52.1
0	229452	958.1	51.9
0	229453	958.1	51.7
0	229454	958.1	51.5
0	229455	958.1	51.3
0	229456	958.1	51.1
0	229457	958.1	50.9
0	229458	958.1	50.7
0	229459	958.1	50.5
0	229460	958.1	50.3
0	229461	958.1	50.1
0	229462	958.1	49.9
0	229463	958.1	49.7
0	229464	958.1	49.5
0	229465	958.1	49.3
0	229466	958.1	49.1
0	229467	958.1	48.9
0	229468	958.1	48.7
0	229469	958.1	48.5
0	229470	958.1	48.3
0	229471	958.1	48.1
0	229472	958.1	47.9
0	229473	958.1	47.7
0	229474	958.1	47.5
0	229475	958.1	47.3
0	229476	958.1	47.1
0	229477	958.1	46.9
0	229478	958.1	46.7
0	229479	958.1	46.5
0	229480	958.1	46.3
0	229481	958.1	46.1
0	229482	958.1	45.9
0	229483	958.1	45.7
0	229484	958.1	45.5
0	229485	958.1	45.3
0	229486	958.1	45.1
0	229487	958.1	44.9
0	229488	958.1	44.7
0	229489	958.1	44.5
0	229490	958.1	44.3
0	229491	958.1	44.1
0	229492	958.1	43.9
0	229493	958.1	43.7
0	229494	958.1	43.5
0	229495	958.1	43.3
0	229496	958.1	43.1
0	229497	958.1	42.9
0	229498	958.1	42.7
0	229499	958.1	42.5
0	229500	958.1	42.3
0	229501	958.1	42.1
0	229502	958.1	41.9
0	229503	958.1	41.7
0	229504	958.1	41.5
0	229505	958.1	41.3
0	229506	958.1	41.1
0	229507	958.1	40.9
0	229508	958.1	40.7
0	229509	958.1	40.5
0	229510	958.1	40.3
0	229511	958.1	40.1
0	229512	958.1	39.9
0	229513	958.1	39.7
0	229514	958.1	39.5
0	229515	958.1	39.3
0	229516	958.1	39.1
0	229517	958.1	38.9
0	229518	958.1	38.7
0	229519	958.1	38.5
0	229520	958.1	38.3
0	229521	958.1	38.1
0	229522	958.1	37.9
0	229523	958.1	37.7
0	229524	958.1	37.5
0	229525	958.1	37.3
0	229526	958.1	37.1
0	229527	958.1	36.9
0	229528	958.1	36.7
0	229529	958.1	36.5
0	229530	958.1	36.3
0	229531	958.1	36.1
0	229532	958.1	35.9
0	229533	958.1	35.7
0	229534	958.1	35.5
0	229535	958.1	35.3
0	229536	958.1	35.1
0	229537	958.1	34.9
0	229538	958.1	34.7
0	229539	958.1	34.5
0	229540	958.1	34.3
0	229541	958.1	34.1
0	229542	958.1	33.9
0	229543	958.1	33.7
0	229544	958.1	33.5
0	229545	958.1	33.3
0	229546	958.1	33.1
0	229547	958.1	32.9
0	229548	958.1	32.7
0	229549	958.1	32.5
0	229550	958.1	32.3
0	229551	958.1	32.1
0	229552	958.1	31.9
0	229553	958.1	31.7
0	229554	958.1	31.5
0	229555	958.1	31.3
0	229556	958.1	31.1
0	229557	958.1	30.9
0	229558	958.1	30.7
0	229559	958.1	30.5
0	229560	958.1	30.3
0	229561	958.1	30.1
0	229562	958.1	29.9
0	229563	958.1	29.7
0	229564	958.1	29.5
0	229565	958.1	29.3
0	229566	958.1	29.1
0	229567	958.1	28.9
0	229568	958.1	28.7
0	229569	958.1	28.5
0	229570	958.1	28.3
0	229571	958.1	28.1
0	229572	958.1	27.9
0	229573	958.1	27.7
0	229574	958.1	27.5
0	229575	958.1	27.3
0	229576	958.1	27.1
0	229577	958.1	26.9
0	229578	958.1	26.7
0	229579	958.1	26.5
0	229580	958.1	26.3
0	229581	958.1	26.1
0	229582	958.1	25.9
0	229583	958.1	25.7
0	229584	958.1	25.5
0	229585	958.1	25.3
0	229586	958.1	25.1
0	229587	958.1	24.9
0	229588	958.1	24.7
0	229589	958.1	24.5
0	229590	958.1	24.3
0	229591	958.1	24.1
0	229592	958.1	23.9
0	229593	958.1	23.7
0	229594	958.1	23.5
0	229595	958.1	23.3
0	229596	958.1	23.1
0	229597	958.1	22.9
0	229598	958.1	22.7
0	229599	958.1	22.5
0	229600	958.1	22.3
0	229601	958.1	22.1
0	229602	958.1	21.9
0	229603	958.1	21.7
0	229604	958.1	21.5
0	229605	958.1	21.3
0	229606	958.1	21.1
0	229607	958.1	20.9
0	229608	958.1	20.7
0	229609	958.1	20.5
0	229610	958.1	20.3
0	229611	958.1	20.1
0	229612	958.1	19.9
0	229613	958.1	19.7
0	229614	958.1	19.5
0	229615	958.1	19.3
0	229616	958.1	19.1
0	229617	958.1	18.9
0	229618	958.1	18.7
0	229619	958.1	18.5
0	229620	958.1	18.3
0	229621	958.1	18.1
0	229622	958.1	17.9
0	229623	958.1	17.7
0	229624	958.1	17.5
0	229625	958.1	17.3
0	229626	958.1	17.1
0	229627	958.1	16.9
0	229628	958.1	16.7
0	229629	958.1	16.5
0	229630	958.1	16.3
0	236604	971.2	29.2
0	236605	971.2	29
0	236606	971.2	28.8
0	236607	971.2	28.6
0	236608	971.2	28.4
0	236609	971.2	28.2
0	236610	971.2	28
0	236611	971.2	27.8
0	236612	971.2	27.6
0	236613	971.2	27.4
0	236614	971.2	27.2
0	236615	971.2	27
0	236616	971.2	26.8
0	236617	971.2	26.6
0	236618	971.2	26.4
0	236619	971.2	26.2
0	236620	971.2	26
0	236621	971.2	25.8
0	236622	971.2	25.6
0	236623	971.2	25.4
0	236624	971.2	25.2
0	236625	971.2	25
0	236626	971.2	24.8
0	236627	971.2	24.6
0	236628	971.2	24.4
0	236629	971.2	24.2
0	236630	971.2	24
0	236631	971.2	23.8
0	236632	971.2	23.6
0	236633	971.2	23.4
0	236634	971.2	23.2
0	236635	971.2	23
0	236636	971.2	22.8
0	236637	971.2	22.6
0	236638	971.2	22.4
0	236639	971.2	22.2
0	236640	971.2	22
0	236641	971.2	21.8
0	236642	971.2	21.6
0	236643	971.2	21.4
0	236644	971.2	21.2
0	236645	971.2	21
0	236646	971.2	20.8
0	236647	971.2	20.6
0	236648	971.2	20.4
0	236649	971.2	20.2
0	236650	971.2	20
0	236651	971.2	19.8
0	236652	971.2	19.6
0	236653	971.2	19.4
0	236654	971.2	19.2
0	236655	971.2	19
0	236656	971.2	18.8
0	236657	971.2	18.6
0	236658	971.2	18.4
0	236659	971.2	18.2
0	236660	971.2	18
0	236661	971.2	17.8
0	236662	971.2	17.6
0	236663	971.2	17.4
0	236664	971.2	17.2
0	236665	971.2	17
0	236666	971.2	16.8
0	236667	971.2	16.6
0	236668	971.2	16.4
0	236669	971.2	16.2
0	236670	971.2	16
0	236671	971.2	15.8
0	236672	971.2	15.6
0	236673	971.2	15.4
0	236674	971.2	15.2
0	236675	971.2	15
0	236676	971.2	14.8
0	236677	971.2	14.6
0	236678	971.2	14.4
0	236679	971.2	14.2
0	236680	971.2	14
0	236681	971.2	13.8
0	236682	971.2	13.6
0	236683	971.2	13.4
0	236684	971.2	13.2
0	236685	971.2	13
0	236686	971.2	12.8
0	236687	971.2	12.6
0	236688	971.2	12.4
0	236689	971.2	12.2
0	236690	971.2	12
0	236691	971.2	11.8
0	236692	971.2	11.6
0	236693	971.2	11.4
0	236694	971.2	11.2
0	236695	971.2	11
0	236696	971.2	10.8
0	236697	971.2	10.6
0	236698	971.2	10.4
0	236699	971.2	10.2
0	236700	971.2	10
0	236701	971.2	9.8
0	236702	971.2	9.6
0	236703	971.2	9.4
0	236704	971.2	9.2
0	236705	971.2	9
0	236706	971.2	8.8
0	236707	971.2	8.6
0	236708	971.2	8.4
0	236709	971.2	8.2
0	236710	971.2	8
0	236711	971.2	7.8
0	236712	971.2	7.6
0	236713	971.2	7.4
0	236714	971.2	7.2
0	236715	971.2	7
0	236716	971.2	6.8
0	236717	971.2	6.6
0	236718	971.2	6.4
0	236719	971.2	6.2
0	236720	971.2	6
0	236721	971.2	5.8
0	236722	971.2	5.6
0	236723	971.2	5.4
0	236724	971.2	5.2
0	236725	971.2	5
0	236726	971.2	4.8
0	236727	971.2	4.6
0	236728	971.2	4.4
0	236729	971.2	4.2
0	236730	971.2	4
0	236731	971.2	3.8
0	236732	971.2	3.6
0	236733	971.2	3.4
0	236734	971.2	3.2
0	236735	971.2	3
0	236736	971.2	2.8
0	236737	971.2	2.6
0	236738	971.2	2.4
0	239877	972.4	3.4
0	239878	972.4	3.2
0	239879	972.4	3
0	239880	972.4	2.8
0	239881	972.4	2.6
0	239882	972.4	2.4
0	239883	972.4	2.2
0	239884	972.4	2
0	239885	972.4	1.8
0	239886	972.4	1.6
0	239887	972.4	1.4
0	240553	972.6	1.4
0	241276	972.8	1.4
0	241319	973	1.4
0	241362	973.2	1.4
0	241405	973.4	1.4
0	241448	973.6	1.4
0	241513	973.8	1.4
0	241557	974	1.4
0	241595	974.2	1.4
0	241633	974.4	1.4
0	241671	974.6	1.4
0	241709	974.8	1.4
0	241889	975	1.4
0	243759	993.3	18.3
0	243760	993.3	18.1
0	243761	993.3	17.9
0	243762	993.3	17.7
0	243763	993.3	17.5
0	243764	993.3	17.3
0	243765	993.3	17.1
0	243766	993.3	16.9
0	243767	993.3	16.7
0	243768	993.3	16.5
0	243769	993.3	16.3
0	243770	993.3	16.1
0	243771	993.3	15.9
0	243772	993.3	15.7
0	243773	993.3	15.5
0	243774	993.3	15.3
0	243775	993.3	15.1
0	243776	993.3	14.9
0	243777	993.3	14.7
0	243778	993.3	14.5
0	243779	993.3	14.3
0	243780	993.3	14.1
0	243781	993.3	13.9
0	243782	993.3	13.7
0	243783	993.3	13.5
0	243784	993.3	13.3
0	243785	993.3	13.1
0	243786	993.3	12.9
0	243787	993.3	12.7
0	243788	993.3	12.5
0	243789	993.3	12.3
0	243790	993.3	12.1
0	243791	993.3	11.9
0	243792	993.3	11.7
0	243793	993.3	11.5
0	243794	993.3	19.5
0	243795	993.3	19.3
0	243796	993.3	19.1
0	243797	993.3	18.9
0	243798	993.3	18.7
0	243799	993.3	18.5

