version 2
run General-0-20250118-14:54:56-227054
attr configname General
attr datetime 20250118-14:54:56
attr experiment General
attr inifile shaw_mine.ini
attr iterationvars ""
attr iterationvarsf ""
attr measurement ""
attr network src.dtnsim
attr processid 227054
attr repetition 0
attr replication #0
attr resultdir results
attr runnumber 0
attr seedset 0
param dtnsim.central.contactsFile "\"contactPlan/Contacts.txt\""
param dtnsim.central.contactsFile_A "\"contactPlan/Contacts.txt\""
param dtnsim.central.contactsFile_B "\"contactPlan/Contacts.txt\""
param dtnsim.central.contactIdsToDelete_from_celestialA "\"9 10 19 24 29 39 45 63 67 87 88 99 107 116 128 141 151 153 167 169 174 197 212 215 239 256 264 268 272 288 290 301 314 316 323 330 356 369 375 382 385 390 406 409 415 429 432 438 460\""
param dtnsim.central.contactIdsToDelete_from_celestialB "\"5 21 34 42 43 44 68 69 71 72 73 75 78 79 96 114 121 129 143 152 156 161 172 191 201 204 207 208 216 226 231 262 266 295 306 311 315 340 344 346 347 370 376 384 392 419 433 449 457 478 480\""
param dtnsim.central.celestialA_nodes "\"1 2 3\""
param dtnsim.central.celestialB_nodes "\"4 5 6\""
param dtnsim.central.locallyfaultsAware true
param dtnsim.central.mode_two_celestial true
param dtnsim.nodesNumber 6
param dtnsim.node[1].icon "\"receiverdish\""
param dtnsim.node[2..5].icon "\"satellite\""
param dtnsim.node[6].icon "\"receiverdish\""
param dtnsim.node[*].dtn.routing "\"cgrModel350\""
param dtnsim.node[*].dtn.routingType "\"routeListType:allPaths-firstEnding,volumeAware:allContacts,extensionBlock:on,contactPlan:global\""
param dtnsim.node[1].app.enable true
param dtnsim.node[1].app.bundlesNumber "\"8000\""
param dtnsim.node[1].app.start "\"0\""
param dtnsim.node[1].app.destinationEid "\"6\""
param dtnsim.node[1].app.size "\"1500\""
param dtnsim.node[1].app.interval 10

vector 0 dtnsim.node[6].app appBundleReceivedDelayvec:vector ETV
attr interpolationmode none
attr source appBundleReceivedDelay
attr title "appBundleReceivedDelayvec, vector"
0	45592	37697	37697
0	45598	37697	37687
0	45604	37697	37677
0	45610	37697	37667
0	45616	37697	37657
0	45622	37697	37647
0	45628	37697	37637
0	45634	37697	37627
0	45640	37697	37617
0	45646	37697	37607
0	45652	37697	37597
0	45658	37697	37587
0	45664	37697	37577
0	45670	37697	37567
0	45676	37697	37557
0	45682	37697	37547
0	45688	37697	37537
0	45694	37697	37527
0	45700	37697	37517
0	45706	37697	37507
0	45712	37697	37497
0	45718	37697	37487
0	45724	37697	37477
0	45730	37697	37467
0	45736	37697	37457
0	45742	37697	37447
0	45748	37697	37437
0	45754	37697	37427
0	45760	37697	37417
0	45766	37697	37407
0	45772	37697	37397
0	45778	37697	37387
0	45784	37697	37377
0	45790	37697	37367
0	45796	37697	37357
0	45802	37697	37347
0	45808	37697	37337
0	45814	37697	37327
0	45820	37697	37317
0	45826	37697	37307
0	45832	37697	37297
0	45838	37697	37287
0	45844	37697	37277
0	45850	37697	37267
0	45856	37697	37257
0	45862	37697	37247
0	45868	37697	37237
0	45874	37697	37227
0	45880	37697	37217
0	45886	37697	37207
0	45892	37697	37197
0	45898	37697	37187
0	45904	37697	37177
0	45910	37697	37167
0	45916	37697	37157
0	45922	37697	37147
0	45928	37697	37137
0	45934	37697	37127
0	45940	37697	37117
0	45946	37697	37107
0	45952	37697	37097
0	45958	37697	37087
0	45964	37697	37077
0	45970	37697	37067
0	45976	37697	37057
0	45982	37697	37047
0	45988	37697	37037
0	45994	37697	37027
0	46000	37697	37017
0	46006	37697	37007
0	46012	37697	36997
0	46018	37697	36987
0	46024	37697	36977
0	46030	37697	36967
0	46036	37697	36957
0	46042	37697	36947
0	46048	37697	36937
0	46054	37697	36927
0	46060	37697	36917
0	46066	37697	36907
0	46072	37697	36897
0	46078	37697	36887
0	46084	37697	36877
0	46090	37697	36867
0	46096	37697	36857
0	46102	37697	36847
0	46108	37697	36837
0	46114	37697	36827
0	46120	37697	36817
0	46126	37697	36807
0	46132	37697	36797
0	46138	37697	36787
0	46144	37697	36777
0	46150	37697	36767
0	46156	37697	36757
0	46162	37697	36747
0	46168	37697	36737
0	46174	37697	36727
0	46180	37697	36717
0	46186	37697	36707
0	46192	37697	36697
0	46198	37697	36687
0	46204	37697	36677
0	46210	37697	36667
0	46216	37697	36657
0	46222	37697	36647
0	46228	37697	36637
0	46234	37697	36627
0	46240	37697	36617
0	46246	37697	36607
0	46252	37697	36597
0	46258	37697	36587
0	46264	37697	36577
0	46270	37697	36567
0	46276	37697	36557
0	46282	37697	36547
0	46288	37697	36537
0	46294	37697	36527
0	46300	37697	36517
0	46306	37697	36507
0	46312	37697	36497
0	46318	37697	36487
0	46324	37697	36477
0	46330	37697	36467
0	46336	37697	36457
0	46342	37697	36447
0	46348	37697	36437
0	46354	37697	36427
0	46360	37697	36417
0	46366	37697	36407
0	46372	37697	36397
0	46378	37697	36387
0	46384	37697	36377
0	46390	37697	36367
0	46396	37697	36357
0	46402	37697	36347
0	46408	37697	36337
0	46414	37697	36327
0	46420	37697	36317
0	46426	37697	36307
0	46432	37697	36297
0	46438	37697	36287
0	46444	37697	36277
0	46450	37697	36267
0	46456	37697	36257
0	46462	37697	36247
0	46468	37697	36237
0	46474	37697	36227
0	46480	37697	36217
0	46486	37697	36207
0	46492	37697	36197
0	46498	37697	36187
0	46504	37697	36177
0	46510	37697	36167
0	46516	37697	36157
0	46522	37697	36147
0	46528	37697	36137
0	46534	37697	36127
0	46540	37697	36117
0	46546	37697	36107
0	46552	37697	36097
0	46558	37697	36087
0	46564	37697	36077
0	46570	37697	36067
0	46576	37697	36057
0	46582	37697	36047
0	46588	37697	36037
0	46594	37697	36027
0	46600	37697	36017
0	46606	37697	36007
0	46612	37697	35997
0	46618	37697	35987
0	46624	37697	35977
0	46630	37697	35967
0	46636	37697	35957
0	46642	37697	35947
0	46648	37697	35937
0	46654	37697	35927
0	46660	37697	35917
0	46666	37697	35907
0	46672	37697	35897
0	46678	37697	35887
0	46684	37697	35877
0	46690	37697	35867
0	46696	37697	35857
0	46702	37697	35847
0	46708	37697	35837
0	46714	37697	35827
0	46720	37697	35817
0	46726	37697	35807
0	46732	37697	35797
0	46738	37697	35787
0	46744	37697	35777
0	46750	37697	35767
0	46756	37697	35757
0	46762	37697	35747
0	46768	37697	35737
0	46774	37697	35727
0	46780	37697	35717
0	46786	37697	35707
0	46792	37697	35697
0	46798	37697	35687
0	46804	37697	35677
0	46810	37697	35667
0	46816	37697	35657
0	46822	37697	35647
0	46828	37697	35637
0	46834	37697	35627
0	46840	37697	35617
0	46846	37697	35607
0	46852	37697	35597
0	46858	37697	35587
0	46864	37697	35577
0	46870	37697	35567
0	46876	37697	35557
0	46882	37697	35547
0	46888	37697	35537
0	46894	37697	35527
0	46900	37697	35517
0	46906	37697	35507
0	46912	37697	35497
0	46918	37697	35487
0	46924	37697	35477
0	46930	37697	35467
0	46936	37697	35457
0	46942	37697	35447
0	46948	37697	35437
0	46954	37697	35427
0	46960	37697	35417
0	46966	37697	35407
0	46972	37697	35397
0	46978	37697	35387
0	46984	37697	35377
0	46990	37697	35367
0	46996	37697	35357
0	47002	37697	35347
0	47008	37697	35337
0	47014	37697	35327
0	47020	37697	35317
0	47026	37697	35307
0	47032	37697	35297
0	47038	37697	35287
0	47044	37697	35277
0	47050	37697	35267
0	47056	37697	35257
0	47062	37697	35247
0	47068	37697	35237
0	47074	37697	35227
0	47080	37697	35217
0	47086	37697	35207
0	47092	37697	35197
0	47098	37697	35187
0	47104	37697	35177
0	47110	37697	35167
0	47116	37697	35157
0	47122	37697	35147
0	47128	37697	35137
0	47134	37697	35127
0	47140	37697	35117
0	47146	37697	35107
0	47152	37697	35097
0	47158	37697	35087
0	47164	37697	35077
0	47170	37697	35067
0	47176	37697	35057
0	47182	37697	35047
0	47188	37697	35037
0	47194	37697	35027
0	47200	37697	35017
0	47206	37697	35007
0	47212	37697	34997
0	47218	37697	34987
0	47224	37697	34977
0	47230	37697	34967
0	47236	37697	34957
0	47242	37697	34947
0	47248	37697	34937
0	47254	37697	34927
0	47260	37697	34917
0	47266	37697	34907
0	47272	37697	34897
0	47278	37697	34887
0	47284	37697	34877
0	47290	37697	34867
0	47296	37697	34857
0	47302	37697	34847
0	47308	37697	34837
0	47314	37697	34827
0	47320	37697	34817
0	47326	37697	34807
0	47332	37697	34797
0	47338	37697	34787
0	47344	37697	34777
0	47350	37697	34767
0	47356	37697	34757
0	47362	37697	34747
0	47368	37697	34737
0	47374	37697	34727
0	47380	37697	34717
0	47386	37697	34707
0	47392	37697	34697
0	47398	37697	34687
0	47404	37697	34677
0	47410	37697	34667
0	47416	37697	34657
0	47422	37697	34647
0	47428	37697	34637
0	47434	37697	34627
0	47440	37697	34617
0	47446	37697	34607
0	47452	37697	34597
0	47458	37697	34587
0	47464	37697	34577
0	47470	37697	34567
0	47476	37697	34557
0	47482	37697	34547
0	47488	37697	34537
0	47494	37697	34527
0	47500	37697	34517
0	47506	37697	34507
0	47512	37697	34497
0	47518	37697	34487
0	47524	37697	34477
0	47530	37697	34467
0	47536	37697	34457
0	47542	37697	34447
0	47548	37697	34437
0	47554	37697	34427
0	47560	37697	34417
0	47566	37697	34407
0	47572	37697	34397
0	47578	37697	34387
0	47584	37697	34377
0	47590	37697	34367
0	47596	37697	34357
0	47602	37697	34347
0	47608	37697	34337
0	47614	37697	34327
0	47620	37697	34317
0	47626	37697	34307
0	47632	37697	34297
0	47638	37697	34287
0	47644	37697	34277
0	47650	37697	34267
0	47656	37697	34257
0	47662	37697	34247
0	47668	37697	34237
0	47674	37697	34227
0	47680	37697	34217
0	47686	37697	34207
0	47692	37697	34197
0	47698	37697	34187
0	47704	37697	34177
0	47710	37697	34167
0	47716	37697	34157
0	47722	37697	34147
0	47728	37697	34137
0	47734	37697	34127
0	47740	37697	34117
0	47746	37697	34107
0	47752	37697	34097
0	47758	37697	34087
0	47764	37697	34077
0	47770	37697	34067
0	47776	37697	34057
0	47782	37697	34047
0	47788	37697	34037
0	47794	37697	34027
0	47800	37697	34017
0	47806	37697	34007
0	47812	37697	33997
0	47818	37697	33987
0	47824	37697	33977
0	47830	37697	33967
0	47836	37697	33957
0	47842	37697	33947
0	47848	37697	33937
0	47854	37697	33927
0	47860	37697	33917
0	47866	37697	33907
0	47872	37697	33897
0	47878	37697	33887
0	47884	37697	33877
0	47890	37697	33867
0	47896	37697	33857
0	47902	37697	33847
0	47908	37697	33837
0	47914	37697	33827
0	47920	37697	33817
0	47926	37697	33807
0	47932	37697	33797
0	47938	37697	33787
0	47944	37697	33777
0	47950	37697	33767
0	47956	37697	33757
0	47962	37697	33747
0	47968	37697	33737
0	47974	37697	33727
0	47980	37697	33717
0	47986	37697	33707
0	47992	37697	33697
0	47998	37697	33687
0	48004	37697	33677
0	48010	37697	33667
0	48016	37697	33657
0	48022	37697	33647
0	48028	37697	33637
0	48034	37697	33627
0	48040	37697	33617
0	48046	37697	33607
0	48052	37697	33597
0	48058	37697	33587
0	48064	37697	33577
0	48070	37697	33567
0	48076	37697	33557
0	48082	37697	33547
0	48088	37697	33537
0	48094	37697	33527
0	48100	37697	33517
0	48106	37697	33507
0	48112	37697	33497
0	48118	37697	33487
0	48124	37697	33477
0	48130	37697	33467
0	48136	37697	33457
0	48142	37697	33447
0	48148	37697	33437
0	48154	37697	33427
0	48160	37697	33417
0	48166	37697	33407
0	48172	37697	33397
0	48178	37697	33387
0	48184	37697	33377
0	48190	37697	33367
0	48196	37697	33357
0	48202	37697	33347
0	48208	37697	33337
0	48214	37697	33327
0	48220	37697	33317
0	48226	37697	33307
0	48232	37697	33297
0	48238	37697	33287
0	48244	37697	33277
0	48250	37697	33267
0	48256	37697	33257
0	48262	37697	33247
0	48268	37697	33237
0	48274	37697	33227
0	48280	37697	33217
0	48286	37697	33207
0	48292	37697	33197
0	48298	37697	33187
0	48304	37697	33177
0	48310	37697	33167
0	48316	37697	33157
0	48322	37697	33147
0	48328	37697	33137
0	48334	37697	33127
0	48340	37697	33117
0	48346	37697	33107
0	48352	37697	33097
0	48358	37697	33087
0	48364	37697	33077
0	48370	37697	33067
0	48376	37697	33057
0	48382	37697	33047
0	48388	37697	33037
0	48394	37697	33027
0	48400	37697	33017
0	48406	37697	33007
0	48412	37697	32997
0	48418	37697	32987
0	48424	37697	32977
0	48430	37697	32967
0	48436	37697	32957
0	48442	37697	32947
0	48448	37697	32937
0	48454	37697	32927
0	48460	37697	32917
0	48466	37697	32907
0	48472	37697	32897
0	48478	37697	32887
0	48484	37697	32877
0	48490	37697	32867
0	48496	37697	32857
0	48502	37697	32847
0	48508	37697	32837
0	48514	37697	32827
0	48520	37697	32817
0	48526	37697	32807
0	48532	37697	32797
0	48538	37697	32787
0	48544	37697	32777
0	48550	37697	32767
0	48556	37697	32757
0	48562	37697	32747
0	48568	37697	32737
0	48574	37697	32727
0	48580	37697	32717
0	48586	37697	32707
0	48592	37697	32697
0	48598	37697	32687
0	48604	37697	32677
0	48610	37697	32667
0	48616	37697	32657
0	48622	37697	32647
0	48628	37697	32637
0	48634	37697	32627
0	48640	37697	32617
0	48646	37697	32607
0	48652	37697	32597
0	48658	37697	32587
0	48664	37697	32577
0	48670	37697	32567
0	48676	37697	32557
0	48682	37697	32547
0	48688	37697	32537
0	48694	37697	32527
0	48700	37697	32517
0	48706	37697	32507
0	48712	37697	32497
0	48718	37697	32487
0	48724	37697	32477
0	48730	37697	32467
0	48736	37697	32457
0	48742	37697	32447
0	48748	37697	32437
0	48754	37697	32427
0	48760	37697	32417
0	48766	37697	32407
0	48772	37697	32397
0	48778	37697	32387
0	48784	37697	32377
0	48790	37697	32367
0	48796	37697	32357
0	48802	37697	32347
0	48808	37697	32337
0	48814	37697	32327
0	48820	37697	32317
0	48826	37697	32307
0	48832	37697	32297
0	48838	37697	32287
0	48844	37697	32277
0	48850	37697	32267
0	48856	37697	32257
0	48862	37697	32247
0	48868	37697	32237
0	48874	37697	32227
0	48880	37697	32217
0	48886	37697	32207
0	48892	37697	32197
0	48898	37697	32187
0	48904	37697	32177
0	48910	37697	32167
0	48916	37697	32157
0	48922	37697	32147
0	48928	37697	32137
0	48934	37697	32127
0	48940	37697	32117
0	48946	37697	32107
0	48952	37697	32097
0	48958	37697	32087
0	48964	37697	32077
0	48970	37697	32067
0	48976	37697	32057
0	48982	37697	32047
0	48988	37697	32037
0	48994	37697	32027
0	49000	37697	32017
0	49006	37697	32007
0	49012	37697	31997
0	49018	37697	31987
0	49024	37697	31977
0	49030	37697	31967
0	49036	37697	31957
0	49042	37697	31947
0	49048	37697	31937
0	49054	37697	31927
0	49060	37697	31917
0	49066	37697	31907
0	49072	37697	31897
0	49078	37697	31887
0	49084	37697	31877
0	49090	37697	31867
0	49096	37697	31857
0	49102	37697	31847
0	49108	37697	31837
0	49114	37697	31827
0	49120	37697	31817
0	49126	37697	31807
0	49132	37697	31797
0	49138	37697	31787
0	49144	37697	31777
0	49150	37697	31767
0	49156	37697	31757
0	49162	37697	31747
0	49168	37697	31737
0	49174	37697	31727
0	49180	37697	31717
0	49186	37697	31707
0	49192	37697	31697
0	49198	37697	31687
0	49204	37697	31677
0	49210	37697	31667
0	49216	37697	31657
0	49222	37697	31647
0	49228	37697	31637
0	49234	37697	31627
0	49240	37697	31617
0	49246	37697	31607
0	49252	37697	31597
0	49258	37697	31587
0	49264	37697	31577
0	49270	37697	31567
0	49276	37697	31557
0	49282	37697	31547
0	49288	37697	31537
0	49294	37697	31527
0	49300	37697	31517
0	49306	37697	31507
0	49312	37697	31497
0	49318	37697	31487
0	49324	37697	31477
0	49330	37697	31467
0	49336	37697	31457
0	49342	37697	31447
0	49348	37697	31437
0	49354	37697	31427
0	49360	37697	31417
0	49366	37697	31407
0	49372	37697	31397
0	49378	37697	31387
0	49384	37697	31377
0	49390	37697	31367
0	49396	37697	31357
0	49402	37697	31347
0	49408	37697	31337
0	49414	37697	31327
0	49420	37697	31317
0	49426	37697	31307
0	49432	37697	31297
0	49438	37697	31287
0	49444	37697	31277
0	49450	37697	31267
0	49456	37697	31257
0	49462	37697	31247
0	49468	37697	31237
0	49474	37697	31227
0	49480	37697	31217
0	49486	37697	31207
0	49492	37697	31197
0	49498	37697	31187
0	49504	37697	31177
0	49510	37697	31167
0	49516	37697	31157
0	49522	37697	31147
0	49528	37697	31137
0	49534	37697	31127
0	49540	37697	31117
0	49546	37697	31107
0	49552	37697	31097
0	49558	37697	31087
0	49564	37697	31077
0	49570	37697	31067
0	49576	37697	31057
0	49582	37697	31047
0	49588	37697	31037
0	49594	37697	31027
0	49600	37697	31017
0	49606	37697	31007
0	49612	37697	30997
0	49618	37697	30987
0	49624	37697	30977
0	49630	37697	30967
0	49636	37697	30957
0	49642	37697	30947
0	49648	37697	30937
0	49654	37697	30927
0	49660	37697	30917
0	49666	37697	30907
0	49672	37697	30897
0	49678	37697	30887
0	49684	37697	30877
0	49690	37697	30867
0	49696	37697	30857
0	49702	37697	30847
0	49708	37697	30837
0	49714	37697	30827
0	49720	37697	30817
0	49726	37697	30807
0	49732	37697	30797
0	49738	37697	30787
0	49744	37697	30777
0	49750	37697	30767
0	49756	37697	30757
0	49762	37697	30747
0	49768	37697	30737
0	49774	37697	30727
0	49780	37697	30717
0	49786	37697	30707
0	49792	37697	30697
0	49798	37697	30687
0	49804	37697	30677
0	49810	37697	30667
0	49816	37697	30657
0	49822	37697	30647
0	49828	37697	30637
0	49834	37697	30627
0	49840	37697	30617
0	49846	37697	30607
0	49852	37697	30597
0	49858	37697	30587
0	49864	37697	30577
0	49870	37697	30567
0	49876	37697	30557
0	49882	37697	30547
0	49888	37697	30537
0	49894	37697	30527
0	49900	37697	30517
0	49906	37697	30507
0	49912	37697	30497
0	49918	37697	30487
0	49924	37697	30477
0	49930	37697	30467
0	49936	37697	30457
0	49942	37697	30447
0	49948	37697	30437
0	49954	37697	30427
0	49960	37697	30417
0	49966	37697	30407
0	49972	37697	30397
0	49978	37697	30387
0	49984	37697	30377
0	49990	37697	30367
0	49996	37697	30357
0	50002	37697	30347
0	50008	37697	30337
0	50014	37697	30327
0	50020	37697	30317
0	50026	37697	30307
0	50032	37697	30297
0	50038	37697	30287
0	50044	37697	30277
0	50050	37697	30267
0	50056	37697	30257
0	50062	37697	30247
0	50068	37697	30237
0	50074	37697	30227
0	50080	37697	30217
0	50086	37697	30207
0	50092	37697	30197
0	50098	37697	30187
0	50104	37697	30177
0	50110	37697	30167
0	50116	37697	30157
0	50122	37697	30147
0	50128	37697	30137
0	50134	37697	30127
0	50140	37697	30117
0	50146	37697	30107
0	50152	37697	30097
0	50158	37697	30087
0	50164	37697	30077
0	50170	37697	30067
0	50176	37697	30057
0	50182	37697	30047
0	50188	37697	30037
0	50194	37697	30027
0	50200	37697	30017
0	50206	37697	30007
0	50212	37697	29997
0	50218	37697	29987
0	50224	37697	29977
0	50230	37697	29967
0	50236	37697	29957
0	50242	37697	29947
0	50248	37697	29937
0	50254	37697	29927
0	50260	37697	29917
0	50266	37697	29907
0	50272	37697	29897
0	50278	37697	29887
0	50284	37697	29877
0	50290	37697	29867
0	50296	37697	29857
0	50302	37697	29847
0	50308	37697	29837
0	50314	37697	29827
0	50320	37697	29817
0	50326	37697	29807
0	50332	37697	29797
0	50338	37697	29787
0	50344	37697	29777
0	50350	37697	29767
0	50356	37697	29757
0	50362	37697	29747
0	50368	37697	29737
0	50374	37697	29727
0	50380	37697	29717
0	50386	37697	29707
0	50392	37697	29697
0	50398	37697	29687
0	50404	37697	29677
0	50410	37697	29667
0	50416	37697	29657
0	50422	37697	29647
0	50428	37697	29637
0	50434	37697	29627
0	50440	37697	29617
0	50446	37697	29607
0	50452	37697	29597
0	50458	37697	29587
0	50464	37697	29577
0	50470	37697	29567
0	50476	37697	29557
0	50482	37697	29547
0	50488	37697	29537
0	50494	37697	29527
0	50500	37697	29517
0	50506	37697	29507
0	50512	37697	29497
0	50518	37697	29487
0	50524	37697	29477
0	50530	37697	29467
0	50536	37697	29457
0	50542	37697	29447
0	50548	37697	29437
0	50554	37697	29427
0	50560	37697	29417
0	50566	37697	29407
0	50572	37697	29397
0	50578	37697	29387
0	50584	37697	29377
0	50590	37697	29367
0	50596	37697	29357
0	50602	37697	29347
0	50608	37697	29337
0	50614	37697	29327
0	50620	37697	29317
0	50626	37697	29307
0	50632	37697	29297
0	50638	37697	29287
0	50644	37697	29277
0	50650	37697	29267
0	50656	37697	29257
0	50662	37697	29247
0	50668	37697	29237
0	50674	37697	29227
0	50680	37697	29217
0	50686	37697	29207
0	50692	37697	29197
0	50698	37697	29187
0	50704	37697	29177
0	50710	37697	29167
0	50716	37697	29157
0	50722	37697	29147
0	50728	37697	29137
0	50734	37697	29127
0	50740	37697	29117
0	50746	37697	29107
0	50752	37697	29097
0	50758	37697	29087
0	50764	37697	29077
0	50770	37697	29067
0	50776	37697	29057
0	50782	37697	29047
0	50788	37697	29037
0	50794	37697	29027
0	50800	37697	29017
0	50806	37697	29007
0	50812	37697	28997
0	50818	37697	28987
0	50824	37697	28977
0	50830	37697	28967
0	50836	37697	28957
0	50842	37697	28947
0	50848	37697	28937
0	50854	37697	28927
0	50860	37697	28917
0	50866	37697	28907
0	50872	37697	28897
0	50878	37697	28887
0	50884	37697	28877
0	50890	37697	28867
0	50896	37697	28857
0	50902	37697	28847
0	50908	37697	28837
0	50914	37697	28827
0	50920	37697	28817
0	50926	37697	28807
0	50932	37697	28797
0	50938	37697	28787
0	50944	37697	28777
0	50950	37697	28767
0	50956	37697	28757
0	50962	37697	28747
0	50968	37697	28737
0	50974	37697	28727
0	50980	37697	28717
0	50986	37697	28707
0	50992	37697	28697
0	50998	37697	28687
0	51004	37697	28677
0	51010	37697	28667
0	51016	37697	28657
0	51022	37697	28647
0	51028	37697	28637
0	51034	37697	28627
0	51040	37697	28617
0	51046	37697	28607
0	51052	37697	28597
0	51058	37697	28587
0	51064	37697	28577
0	51070	37697	28567
0	51076	37697	28557
0	51082	37697	28547
0	51088	37697	28537
0	51094	37697	28527
0	51100	37697	28517
0	51106	37697	28507
0	51112	37697	28497
0	51118	37697	28487
0	51124	37697	28477
0	51130	37697	28467
0	51136	37697	28457
0	51142	37697	28447
0	51148	37697	28437
0	51154	37697	28427
0	51160	37697	28417
0	51166	37697	28407
0	51172	37697	28397
0	51178	37697	28387
0	51184	37697	28377
0	51190	37697	28367
0	51196	37697	28357
0	51202	37697	28347
0	51208	37697	28337
0	51214	37697	28327
0	51220	37697	28317
0	51226	37697	28307
0	51232	37697	28297
0	51238	37697	28287
0	51244	37697	28277
0	51250	37697	28267
0	51256	37697	28257
0	51262	37697	28247
0	51268	37697	28237
0	51274	37697	28227
0	51280	37697	28217
0	51286	37697	28207
0	51292	37697	28197
0	51298	37697	28187
0	51304	37697	28177
0	51310	37697	28167
0	51316	37697	28157
0	51322	37697	28147
0	51328	37697	28137
0	51334	37697	28127
0	51340	37697	28117
0	51346	37697	28107
0	51352	37697	28097
0	51358	37697	28087
0	51364	37697	28077
0	51370	37697	28067
0	51376	37697	28057
0	51382	37697	28047
0	51388	37697	28037
0	51394	37697	28027
0	51400	37697	28017
0	51406	37697	28007
0	51412	37697	27997
0	51418	37697	27987
0	51424	37697	27977
0	51430	37697	27967
0	51436	37697	27957
0	51442	37697	27947
0	51448	37697	27937
0	51454	37697	27927
0	51460	37697	27917
0	51466	37697	27907
0	51472	37697	27897
0	51478	37697	27887
0	51484	37697	27877
0	51490	37697	27867
0	51496	37697	27857
0	51502	37697	27847
0	51508	37697	27837
0	51514	37697	27827
0	51520	37697	27817
0	51526	37697	27807
0	51532	37697	27797
0	51538	37697	27787
0	51544	37697	27777
0	51550	37697	27767
0	51556	37697	27757
0	51562	37697	27747
0	51568	37697	27737
0	51574	37697	27727
0	51580	37697	27717
0	51586	37697	27707
0	51592	37697	27697
0	51598	37697	27687
0	51604	37697	27677
0	51610	37697	27667
0	51616	37697	27657
0	51622	37697	27647
0	51628	37697	27637
0	51634	37697	27627
0	51640	37697	27617
0	51646	37697	27607
0	51652	37697	27597
0	51658	37697	27587
0	51664	37697	27577
0	51670	37697	27567
0	51676	37697	27557
0	51682	37697	27547
0	51688	37697	27537
0	51694	37697	27527
0	51700	37697	27517
0	51706	37697	27507
0	51712	37697	27497
0	51718	37697	27487
0	51724	37697	27477
0	51730	37697	27467
0	51736	37697	27457
0	51742	37697	27447
0	51748	37697	27437
0	51754	37697	27427
0	51760	37697	27417
0	51766	37697	27407
0	51772	37697	27397
0	51778	37697	27387
0	51784	37697	27377
0	51790	37697	27367
0	51796	37697	27357
0	51802	37697	27347
0	51808	37697	27337
0	51814	37697	27327
0	51820	37697	27317
0	51826	37697	27307
0	51832	37697	27297
0	51838	37697	27287
0	51844	37697	27277
0	51850	37697	27267
0	51856	37697	27257
0	51862	37697	27247
0	51868	37697	27237
0	51874	37697	27227
0	51880	37697	27217
0	51886	37697	27207
0	51892	37697	27197
0	51898	37697	27187
0	51904	37697	27177
0	51910	37697	27167
0	51916	37697	27157
0	51922	37697	27147
0	51928	37697	27137
0	51934	37697	27127
0	51940	37697	27117
0	51946	37697	27107
0	51952	37697	27097
0	51958	37697	27087
0	51964	37697	27077
0	51970	37697	27067
0	51976	37697	27057
0	51982	37697	27047
0	51988	37697	27037
0	51994	37697	27027
0	52000	37697	27017
0	52006	37697	27007
0	52012	37697	26997
0	52018	37697	26987
0	52024	37697	26977
0	52030	37697	26967
0	52036	37697	26957
0	52042	37697	26947
0	52048	37697	26937
0	52054	37697	26927
0	52060	37697	26917
0	52066	37697	26907
0	52072	37697	26897
0	52078	37697	26887
0	52084	37697	26877
0	52090	37697	26867
0	52096	37697	26857
0	52102	37697	26847
0	52108	37697	26837
0	52114	37697	26827
0	52120	37697	26817
0	52126	37697	26807
0	52132	37697	26797
0	52138	37697	26787
0	52144	37697	26777
0	52150	37697	26767
0	52156	37697	26757
0	52162	37697	26747
0	52168	37697	26737
0	52174	37697	26727
0	52180	37697	26717
0	52186	37697	26707
0	52192	37697	26697
0	52198	37697	26687
0	52204	37697	26677
0	52210	37697	26667
0	52216	37697	26657
0	52222	37697	26647
0	52228	37697	26637
0	52234	37697	26627
0	52240	37697	26617
0	52246	37697	26607
0	52252	37697	26597
0	52258	37697	26587
0	52264	37697	26577
0	52270	37697	26567
0	52276	37697	26557
0	52282	37697	26547
0	52288	37697	26537
0	52294	37697	26527
0	52300	37697	26517
0	52306	37697	26507
0	52312	37697	26497
0	52318	37697	26487
0	52324	37697	26477
0	52330	37697	26467
0	52336	37697	26457
0	52342	37697	26447
0	52348	37697	26437
0	52354	37697	26427
0	52360	37697	26417
0	52366	37697	26407
0	52372	37697	26397
0	52378	37697	26387
0	52384	37697	26377
0	52390	37697	26367
0	52396	37697	26357
0	52402	37697	26347
0	52408	37697	26337
0	52414	37697	26327
0	52420	37697	26317
0	52426	37697	26307
0	52432	37697	26297
0	52438	37697	26287
0	52444	37697	26277
0	52450	37697	26267
0	52456	37697	26257
0	52462	37697	26247
0	52468	37697	26237
0	52474	37697	26227
0	52480	37697	26217
0	52486	37697	26207
0	52492	37697	26197
0	52498	37697	26187
0	52504	37697	26177
0	52510	37697	26167
0	52516	37697	26157
0	52522	37697	26147
0	52528	37697	26137
0	52534	37697	26127
0	52540	37697	26117
0	52546	37697	26107
0	52552	37697	26097
0	52558	37697	26087
0	52564	37697	26077
0	52570	37697	26067
0	52576	37697	26057
0	52582	37697	26047
0	52588	37697	26037
0	52594	37697	26027
0	52600	37697	26017
0	52606	37697	26007
0	52612	37697	25997
0	52618	37697	25987
0	52624	37697	25977
0	52630	37697	25967
0	52636	37697	25957
0	52642	37697	25947
0	52648	37697	25937
0	52654	37697	25927
0	52660	37697	25917
0	52666	37697	25907
0	52672	37697	25897
0	52678	37697	25887
0	52684	37697	25877
0	52690	37697	25867
0	52696	37697	25857
0	52702	37697	25847
0	52708	37697	25837
0	52714	37697	25827
0	52720	37697	25817
0	52726	37697	25807
0	52732	37697	25797
0	52738	37697	25787
0	52744	37697	25777
0	52750	37697	25767
0	52756	37697	25757
0	52762	37697	25747
0	52768	37697	25737
0	52774	37697	25727
0	52780	37697	25717
0	52786	37697	25707
0	52792	37697	25697
0	52798	37697	25687
0	52804	37697	25677
0	52810	37697	25667
0	52816	37697	25657
0	52822	37697	25647
0	52828	37697	25637
0	52834	37697	25627
0	52840	37697	25617
0	52846	37697	25607
0	52852	37697	25597
0	52858	37697	25587
0	52864	37697	25577
0	52870	37697	25567
0	52876	37697	25557
0	52882	37697	25547
0	52888	37697	25537
0	52894	37697	25527
0	52900	37697	25517
0	52906	37697	25507
0	52912	37697	25497
0	52918	37697	25487
0	52924	37697	25477
0	52930	37697	25467
0	52936	37697	25457
0	52942	37697	25447
0	52948	37697	25437
0	52954	37697	25427
0	52960	37697	25417
0	52966	37697	25407
0	52972	37697	25397
0	52978	37697	25387
0	52984	37697	25377
0	52990	37697	25367
0	52996	37697	25357
0	53002	37697	25347
0	53008	37697	25337
0	53014	37697	25327
0	53020	37697	25317
0	53026	37697	25307
0	53032	37697	25297
0	53038	37697	25287
0	53044	37697	25277
0	53050	37697	25267
0	53056	37697	25257
0	53062	37697	25247
0	53068	37697	25237
0	53074	37697	25227
0	53080	37697	25217
0	53086	37697	25207
0	53092	37697	25197
0	53098	37697	25187
0	53104	37697	25177
0	53110	37697	25167
0	53116	37697	25157
0	53122	37697	25147
0	53128	37697	25137
0	53134	37697	25127
0	53140	37697	25117
0	53146	37697	25107
0	53152	37697	25097
0	53158	37697	25087
0	53164	37697	25077
0	53170	37697	25067
0	53176	37697	25057
0	53182	37697	25047
0	53188	37697	25037
0	53194	37697	25027
0	53200	37697	25017
0	53206	37697	25007
0	53212	37697	24997
0	53218	37697	24987
0	53224	37697	24977
0	53230	37697	24967
0	53236	37697	24957
0	53242	37697	24947
0	53248	37697	24937
0	53254	37697	24927
0	53260	37697	24917
0	53266	37697	24907
0	53272	37697	24897
0	53278	37697	24887
0	53284	37697	24877
0	53290	37697	24867
0	53296	37697	24857
0	53302	37697	24847
0	53308	37697	24837
0	53314	37697	24827
0	53320	37697	24817
0	53326	37697	24807
0	53332	37697	24797
0	53338	37697	24787
0	53344	37697	24777
0	53350	37697	24767
0	53356	37697	24757
0	53362	37697	24747
0	53368	37697	24737
0	53374	37697	24727
0	53380	37697	24717
0	53386	37697	24707
0	53392	37697	24697
0	53398	37697	24687
0	53404	37697	24677
0	53410	37697	24667
0	53416	37697	24657
0	53422	37697	24647
0	53428	37697	24637
0	53434	37697	24627
0	53440	37697	24617
0	53446	37697	24607
0	53452	37697	24597
0	53458	37697	24587
0	53464	37697	24577
0	53470	37697	24567
0	53476	37697	24557
0	53482	37697	24547
0	53488	37697	24537
0	53494	37697	24527
0	53500	37697	24517
0	53506	37697	24507
0	53512	37697	24497
0	53518	37697	24487
0	53524	37697	24477
0	53530	37697	24467
0	53536	37697	24457
0	53542	37697	24447
0	53548	37697	24437
0	53554	37697	24427
0	53560	37697	24417
0	53566	37697	24407
0	53572	37697	24397
0	53578	37697	24387
0	53584	37697	24377
0	53590	37697	24367
0	53596	37697	24357
0	53602	37697	24347
0	53608	37697	24337
0	53614	37697	24327
0	53620	37697	24317
0	53626	37697	24307
0	53632	37697	24297
0	53638	37697	24287
0	53644	37697	24277
0	53650	37697	24267
0	53656	37697	24257
0	53662	37697	24247
0	53668	37697	24237
0	53674	37697	24227
0	53680	37697	24217
0	53686	37697	24207
0	53692	37697	24197
0	53698	37697	24187
0	53704	37697	24177
0	53710	37697	24167
0	53716	37697	24157
0	53722	37697	24147
0	53728	37697	24137
0	53734	37697	24127
0	53740	37697	24117
0	53746	37697	24107
0	53752	37697	24097
0	53758	37697	24087
0	53764	37697	24077
0	53770	37697	24067
0	53776	37697	24057
0	53782	37697	24047
0	53788	37697	24037
0	53794	37697	24027
0	53800	37697	24017
0	53806	37697	24007
0	53812	37697	23997
0	53818	37697	23987
0	53824	37697	23977
0	53830	37697	23967
0	53836	37697	23957
0	53842	37697	23947
0	53848	37697	23937
0	53854	37697	23927
0	53860	37697	23917
0	53866	37697	23907
0	53872	37697	23897
0	53878	37697	23887
0	53884	37697	23877
0	53890	37697	23867
0	53896	37697	23857
0	53902	37697	23847
0	53908	37697	23837
0	53914	37697	23827
0	53920	37697	23817
0	53926	37697	23807
0	53932	37697	23797
0	53938	37697	23787
0	53944	37697	23777
0	53950	37697	23767
0	53956	37697	23757
0	53962	37697	23747
0	53968	37697	23737
0	53974	37697	23727
0	53980	37697	23717
0	53986	37697	23707
0	53992	37697	23697
0	53998	37697	23687
0	54004	37697	23677
0	54010	37697	23667
0	54016	37697	23657
0	54022	37697	23647
0	54028	37697	23637
0	54034	37697	23627
0	54040	37697	23617
0	54046	37697	23607
0	54052	37697	23597
0	54058	37697	23587
0	54064	37697	23577
0	54070	37697	23567
0	54076	37697	23557
0	54082	37697	23547
0	54088	37697	23537
0	54094	37697	23527
0	54100	37697	23517
0	54106	37697	23507
0	54112	37697	23497
0	54118	37697	23487
0	54124	37697	23477
0	54130	37697	23467
0	54136	37697	23457
0	54142	37697	23447
0	54148	37697	23437
0	54154	37697	23427
0	54160	37697	23417
0	54166	37697	23407
0	54172	37697	23397
0	54178	37697	23387
0	54184	37697	23377
0	54190	37697	23367
0	54196	37697	23357
0	54202	37697	23347
0	54208	37697	23337
0	54214	37697	23327
0	54220	37697	23317
0	54226	37697	23307
0	54232	37697	23297
0	54238	37697	23287
0	54244	37697	23277
0	54250	37697	23267
0	54256	37697	23257
0	54262	37697	23247
0	54268	37697	23237
0	54274	37697	23227
0	54280	37697	23217
0	54286	37697	23207
0	54292	37697	23197
0	54298	37697	23187
0	54304	37697	23177
0	54310	37697	23167
0	54316	37697	23157
0	54322	37697	23147
0	54328	37697	23137
0	54334	37697	23127
0	54340	37697	23117
0	54346	37697	23107
0	54352	37697	23097
0	54358	37697	23087
0	54364	37697	23077
0	54370	37697	23067
0	54376	37697	23057
0	54382	37697	23047
0	54388	37697	23037
0	54394	37697	23027
0	54400	37697	23017
0	54406	37697	23007
0	54412	37697	22997
0	54418	37697	22987
0	54424	37697	22977
0	54430	37697	22967
0	54436	37697	22957
0	54442	37697	22947
0	54448	37697	22937
0	54454	37697	22927
0	54460	37697	22917
0	54466	37697	22907
0	54472	37697	22897
0	54478	37697	22887
0	54484	37697	22877
0	54490	37697	22867
0	54496	37697	22857
0	54502	37697	22847
0	54508	37697	22837
0	54514	37697	22827
0	54520	37697	22817
0	54526	37697	22807
0	54532	37697	22797
0	54538	37697	22787
0	54544	37697	22777
0	54550	37697	22767
0	54556	37697	22757
0	54562	37697	22747
0	54568	37697	22737
0	54574	37697	22727
0	54580	37697	22717
0	54586	37697	22707
0	54592	37697	22697
0	54598	37697	22687
0	54604	37697	22677
0	54610	37697	22667
0	54616	37697	22657
0	54622	37697	22647
0	54628	37697	22637
0	54634	37697	22627
0	54640	37697	22617
0	54646	37697	22607
0	54652	37697	22597
0	54658	37697	22587
0	54664	37697	22577
0	54670	37697	22567
0	54676	37697	22557
0	54682	37697	22547
0	54688	37697	22537
0	54694	37697	22527
0	54700	37697	22517
0	54706	37697	22507
0	54712	37697	22497
0	54718	37697	22487
0	54724	37697	22477
0	54730	37697	22467
0	54736	37697	22457
0	54742	37697	22447
0	54748	37697	22437
0	54754	37697	22427
0	54760	37697	22417
0	54766	37697	22407
0	54772	37697	22397
0	54778	37697	22387
0	54784	37697	22377
0	54790	37697	22367
0	54796	37697	22357
0	54802	37697	22347
0	54808	37697	22337
0	54814	37697	22327
0	54820	37697	22317
0	54826	37697	22307
0	54832	37697	22297
0	54838	37697	22287
0	54844	37697	22277
0	54850	37697	22267
0	54856	37697	22257
0	54862	37697	22247
0	54868	37697	22237
0	54874	37697	22227
0	54880	37697	22217
0	54886	37697	22207
0	54892	37697	22197
0	54898	37697	22187
0	54904	37697	22177
0	54910	37697	22167
0	54916	37697	22157
0	54922	37697	22147
0	54928	37697	22137
0	54934	37697	22127
0	54940	37697	22117
0	54946	37697	22107
0	54952	37697	22097
0	54958	37697	22087
0	54964	37697	22077
0	54970	37697	22067
0	54976	37697	22057
0	54982	37697	22047
0	54988	37697	22037
0	54994	37697	22027
0	55000	37697	22017
0	55006	37697	22007
0	55012	37697	21997
0	55018	37697	21987
0	55024	37697	21977
0	55030	37697	21967
0	55036	37697	21957
0	55042	37697	21947
0	55048	37697	21937
0	55054	37697	21927
0	55060	37697	21917
0	55066	37697	21907
0	55072	37697	21897
0	55078	37697	21887
0	55084	37697	21877
0	55090	37697	21867
0	55096	37697	21857
0	55102	37697	21847
0	55108	37697	21837
0	55114	37697	21827
0	55120	37697	21817
0	55126	37697	21807
0	55132	37697	21797
0	55138	37697	21787
0	55144	37697	21777
0	55150	37697	21767
0	55156	37697	21757
0	55162	37697	21747
0	55168	37697	21737
0	55174	37697	21727
0	55180	37697	21717
0	55186	37697	21707
0	55192	37697	21697
0	55198	37697	21687
0	55204	37697	21677
0	55210	37697	21667
0	55216	37697	21657
0	55222	37697	21647
0	55228	37697	21637
0	55234	37697	21627
0	55240	37697	21617
0	55246	37697	21607
0	55252	37697	21597
0	55258	37697	21587
0	55264	37697	21577
0	55270	37697	21567
0	55276	37697	21557
0	55282	37697	21547
0	55288	37697	21537
0	55294	37697	21527
0	55300	37697	21517
0	55306	37697	21507
0	55312	37697	21497
0	55318	37697	21487
0	55324	37697	21477
0	55330	37697	21467
0	55336	37697	21457
0	55342	37697	21447
0	55348	37697	21437
0	55354	37697	21427
0	55360	37697	21417
0	55366	37697	21407
0	55372	37697	21397
0	55378	37697	21387
0	55384	37697	21377
0	55390	37697	21367
0	55396	37697	21357
0	55402	37697	21347
0	55408	37697	21337
0	55414	37697	21327
0	55420	37697	21317
0	55426	37697	21307
0	55432	37697	21297
0	55438	37697	21287
0	55444	37697	21277
0	55450	37697	21267
0	55456	37697	21257
0	55462	37697	21247
0	55468	37697	21237
0	55474	37697	21227
0	55480	37697	21217
0	55486	37697	21207
0	55492	37697	21197
0	55498	37697	21187
0	55504	37697	21177
0	55510	37697	21167
0	55516	37697	21157
0	55522	37697	21147
0	55528	37697	21137
0	55534	37697	21127
0	55540	37697	21117
0	55546	37697	21107
0	55552	37697	21097
0	55558	37697	21087
0	55564	37697	21077
0	55570	37697	21067
0	55576	37697	21057
0	55582	37697	21047
0	55588	37697	21037
0	55594	37697	21027
0	55600	37697	21017
0	55606	37697	21007
0	55612	37697	20997
0	55618	37697	20987
0	55624	37697	20977
0	55630	37697	20967
0	55636	37697	20957
0	55642	37697	20947
0	55648	37697	20937
0	55654	37697	20927
0	55660	37697	20917
0	55666	37697	20907
0	55672	37697	20897
0	55678	37697	20887
0	55684	37697	20877
0	55690	37697	20867
0	55696	37697	20857
0	55702	37697	20847
0	55708	37697	20837
0	55714	37697	20827
0	55720	37697	20817
0	55726	37697	20807
0	55732	37697	20797
0	55738	37697	20787
0	55744	37697	20777
0	55750	37697	20767
0	55756	37697	20757
0	55762	37697	20747
0	55768	37697	20737
0	55774	37697	20727
0	55780	37697	20717
0	55786	37697	20707
0	55792	37697	20697
0	55798	37697	20687
0	55804	37697	20677
0	55810	37697	20667
0	55816	37697	20657
0	55822	37697	20647
0	55828	37697	20637
0	55834	37697	20627
0	55840	37697	20617
0	55846	37697	20607
0	55852	37697	20597
0	55858	37697	20587
0	55864	37697	20577
0	55870	37697	20567
0	55876	37697	20557
0	55882	37697	20547
0	55888	37697	20537
0	55894	37697	20527
0	55900	37697	20517
0	55906	37697	20507
0	55912	37697	20497
0	55918	37697	20487
0	55924	37697	20477
0	55930	37697	20467
0	55936	37697	20457
0	55942	37697	20447
0	55948	37697	20437
0	55954	37697	20427
0	55960	37697	20417
0	55966	37697	20407
0	55972	37697	20397
0	55978	37697	20387
0	55984	37697	20377
0	55990	37697	20367
0	55996	37697	20357
0	56002	37697	20347
0	56008	37697	20337
0	56014	37697	20327
0	56020	37697	20317
0	56026	37697	20307
0	56032	37697	20297
0	56038	37697	20287
0	56044	37697	20277
0	56050	37697	20267
0	56056	37697	20257
0	56062	37697	20247
0	56068	37697	20237
0	56074	37697	20227
0	56080	37697	20217
0	56086	37697	20207
0	56092	37697	20197
0	56098	37697	20187
0	56104	37697	20177
0	56110	37697	20167
0	56116	37697	20157
0	56122	37697	20147
0	56128	37697	20137
0	56134	37697	20127
0	56140	37697	20117
0	56146	37697	20107
0	56152	37697	20097
0	56158	37697	20087
0	56164	37697	20077
0	56170	37697	20067
0	56176	37697	20057
0	56182	37697	20047
0	56188	37697	20037
0	56194	37697	20027
0	56200	37697	20017
0	56206	37697	20007
0	56212	37697	19997
0	56218	37697	19987
0	56224	37697	19977
0	56230	37697	19967
0	56236	37697	19957
0	56242	37697	19947
0	56248	37697	19937
0	56254	37697	19927
0	56260	37697	19917
0	56266	37697	19907
0	56272	37697	19897
0	56278	37697	19887
0	56284	37697	19877
0	56290	37697	19867
0	56296	37697	19857
0	56302	37697	19847
0	56308	37697	19837
0	56314	37697	19827
0	56320	37697	19817
0	56326	37697	19807
0	56332	37697	19797
0	56338	37697	19787
0	56344	37697	19777
0	56350	37697	19767
0	56356	37697	19757
0	56362	37697	19747
0	56368	37697	19737
0	56374	37697	19727
0	56380	37697	19717
0	56386	37697	19707
0	56392	37697	19697
0	56398	37697	19687
0	56404	37697	19677
0	56410	37697	19667
0	56416	37697	19657
0	56422	37697	19647
0	56428	37697	19637
0	56434	37697	19627
0	56440	37697	19617
0	56446	37697	19607
0	56452	37697	19597
0	56458	37697	19587
0	56464	37697	19577
0	56470	37697	19567
0	56476	37697	19557
0	56482	37697	19547
0	56488	37697	19537
0	56494	37697	19527
0	56500	37697	19517
0	56506	37697	19507
0	56512	37697	19497
0	56518	37697	19487
0	56524	37697	19477
0	56530	37697	19467
0	56536	37697	19457
0	56542	37697	19447
0	56548	37697	19437
0	56554	37697	19427
0	56560	37697	19417
0	56566	37697	19407
0	56572	37697	19397
0	56578	37697	19387
0	56584	37697	19377
0	56590	37697	19367
0	56596	37697	19357
0	56602	37697	19347
0	56608	37697	19337
0	56614	37697	19327
0	56620	37697	19317
0	56626	37697	19307
0	56632	37697	19297
0	56638	37697	19287
0	56644	37697	19277
0	56650	37697	19267
0	56656	37697	19257
0	56662	37697	19247
0	56668	37697	19237
0	56674	37697	19227
0	56680	37697	19217
0	56686	37697	19207
0	56692	37697	19197
0	56698	37697	19187
0	56704	37697	19177
0	56710	37697	19167
0	56716	37697	19157
0	56722	37697	19147
0	56728	37697	19137
0	56734	37697	19127
0	56740	37697	19117
0	56746	37697	19107
0	56752	37697	19097
0	56758	37697	19087
0	56764	37697	19077
0	56770	37697	19067
0	56776	37697	19057
0	56782	37697	19047
0	56788	37697	19037
0	56794	37697	19027
0	56800	37697	19017
0	56806	37697	19007
0	56812	37697	18997
0	56818	37697	18987
0	56824	37697	18977
0	56830	37697	18967
0	56836	37697	18957
0	56842	37697	18947
0	56848	37697	18937
0	56854	37697	18927
0	56860	37697	18917
0	56866	37697	18907
0	56872	37697	18897
0	56878	37697	18887
0	56884	37697	18877
0	56890	37697	18867
0	56896	37697	18857
0	56902	37697	18847
0	56908	37697	18837
0	56914	37697	18827
0	56920	37697	18817
0	56926	37697	18807
0	56932	37697	18797
0	56938	37697	18787
0	56944	37697	18777
0	56950	37697	18767
0	56956	37697	18757
0	56962	37697	18747
0	56968	37697	18737
0	56974	37697	18727
0	56980	37697	18717
0	56986	37697	18707
0	56992	37697	18697
0	56998	37697	18687
0	57004	37697	18677
0	57010	37697	18667
0	57016	37697	18657
0	57022	37697	18647
0	57028	37697	18637
0	57034	37697	18627
0	57040	37697	18617
0	57046	37697	18607
0	57052	37697	18597
0	57058	37697	18587
0	57064	37697	18577
0	57070	37697	18567
0	57076	37697	18557
0	57082	37697	18547
0	57088	37697	18537
0	57094	37697	18527
0	57100	37697	18517
0	57106	37697	18507
0	57112	37697	18497
0	57118	37697	18487
0	57124	37697	18477
0	57130	37697	18467
0	57136	37697	18457
0	57142	37697	18447
0	57148	37697	18437
0	57154	37697	18427
0	57160	37697	18417
0	57166	37697	18407
0	57172	37697	18397
0	57178	37697	18387
0	57184	37697	18377
0	57190	37697	18367
0	57196	37697	18357
0	57202	37697	18347
0	57208	37697	18337
0	57214	37697	18327
0	57220	37697	18317
0	57226	37697	18307
0	57232	37697	18297
0	57238	37697	18287
0	57244	37697	18277
0	57250	37697	18267
0	57256	37697	18257
0	57262	37697	18247
0	57268	37697	18237
0	57274	37697	18227
0	57280	37697	18217
0	57286	37697	18207
0	57292	37697	18197
0	57298	37697	18187
0	57304	37697	18177
0	57310	37697	18167
0	57316	37697	18157
0	57322	37697	18147
0	57328	37697	18137
0	57334	37697	18127
0	57340	37697	18117
0	57346	37697	18107
0	57352	37697	18097
0	57358	37697	18087
0	57364	37697	18077
0	57370	37697	18067
0	57376	37697	18057
0	57382	37697	18047
0	57388	37697	18037
0	57394	37697	18027
0	57400	37697	18017
0	57406	37697	18007
0	57412	37697	17997
0	57418	37697	17987
0	57424	37697	17977
0	57430	37697	17967
0	57436	37697	17957
0	57442	37697	17947
0	57448	37697	17937
0	57454	37697	17927
0	57460	37697	17917
0	57466	37697	17907
0	57472	37697	17897
0	57478	37697	17887
0	57484	37697	17877
0	57490	37697	17867
0	57496	37697	17857
0	57502	37697	17847
0	57508	37697	17837
0	57514	37697	17827
0	57520	37697	17817
0	57526	37697	17807
0	57532	37697	17797
0	57538	37697	17787
0	57544	37697	17777
0	57550	37697	17767
0	57556	37697	17757
0	57562	37697	17747
0	57568	37697	17737
0	57574	37697	17727
0	57580	37697	17717
0	57586	37697	17707
0	57592	37697	17697
0	57598	37697	17687
0	57604	37697	17677
0	57610	37697	17667
0	57616	37697	17657
0	57622	37697	17647
0	57628	37697	17637
0	57634	37697	17627
0	57640	37697	17617
0	57646	37697	17607
0	57652	37697	17597
0	57658	37697	17587
0	57664	37697	17577
0	57670	37697	17567
0	57676	37697	17557
0	57682	37697	17547
0	57688	37697	17537
0	57694	37697	17527
0	57700	37697	17517
0	57706	37697	17507
0	57712	37697	17497
0	57718	37697	17487
0	57724	37697	17477
0	57730	37697	17467
0	57736	37697	17457
0	57742	37697	17447
0	57748	37697	17437
0	57754	37697	17427
0	57760	37697	17417
0	57766	37697	17407
0	57772	37697	17397
0	57778	37697	17387
0	57784	37697	17377
0	57790	37697	17367
0	57796	37697	17357
0	57802	37697	17347
0	57808	37697	17337
0	57814	37697	17327
0	57820	37697	17317
0	57826	37697	17307
0	57832	37697	17297
0	57838	37697	17287
0	57844	37697	17277
0	57850	37697	17267
0	57856	37697	17257
0	57862	37697	17247
0	57868	37697	17237
0	57874	37697	17227
0	57880	37697	17217
0	57886	37697	17207
0	57892	37697	17197
0	57898	37697	17187
0	57904	37697	17177
0	57910	37697	17167
0	57916	37697	17157
0	57922	37697	17147
0	57928	37697	17137
0	57934	37697	17127
0	57940	37697	17117
0	57946	37697	17107
0	57952	37697	17097
0	57958	37697	17087
0	57964	37697	17077
0	57970	37697	17067
0	57976	37697	17057
0	57982	37697	17047
0	57988	37697	17037
0	57994	37697	17027
0	58000	37697	17017
0	58006	37697	17007
0	58012	37697	16997
0	58018	37697	16987
0	58024	37697	16977
0	58030	37697	16967
0	58036	37697	16957
0	58042	37697	16947
0	58048	37697	16937
0	58054	37697	16927
0	58060	37697	16917
0	58066	37697	16907
0	58072	37697	16897
0	58078	37697	16887
0	58084	37697	16877
0	58090	37697	16867
0	58096	37697	16857
0	58102	37697	16847
0	58108	37697	16837
0	58114	37697	16827
0	58120	37697	16817
0	58126	37697	16807
0	58132	37697	16797
0	58138	37697	16787
0	58144	37697	16777
0	58150	37697	16767
0	58156	37697	16757
0	58162	37697	16747
0	58168	37697	16737
0	58174	37697	16727
0	58180	37697	16717
0	58186	37697	16707
0	58192	37697	16697
0	58198	37697	16687
0	58204	37697	16677
0	58210	37697	16667
0	58216	37697	16657
0	58222	37697	16647
0	58228	37697	16637
0	58234	37697	16627
0	58240	37697	16617
0	58246	37697	16607
0	58252	37697	16597
0	58258	37697	16587
0	58264	37697	16577
0	58270	37697	16567
0	58276	37697	16557
0	58282	37697	16547
0	58288	37697	16537
0	58294	37697	16527
0	58300	37697	16517
0	58306	37697	16507
0	58312	37697	16497
0	58318	37697	16487
0	58324	37697	16477
0	58330	37697	16467
0	58336	37697	16457
0	58342	37697	16447
0	58348	37697	16437
0	58354	37697	16427
0	58360	37697	16417
0	58366	37697	16407
0	58372	37697	16397
0	58378	37697	16387
0	58384	37697	16377
0	58390	37697	16367
0	58396	37697	16357
0	58402	37697	16347
0	58408	37697	16337
0	58414	37697	16327
0	58420	37697	16317
0	58426	37697	16307
0	58432	37697	16297
0	58438	37697	16287
0	58444	37697	16277
0	58450	37697	16267
0	58456	37697	16257
0	58462	37697	16247
0	58468	37697	16237
0	58474	37697	16227
0	58480	37697	16217
0	58486	37697	16207
0	58492	37697	16197
0	58498	37697	16187
0	58504	37697	16177
0	58510	37697	16167
0	58516	37697	16157
0	58522	37697	16147
0	58528	37697	16137
0	58534	37697	16127
0	58540	37697	16117
0	58546	37697	16107
0	58552	37697	16097
0	58558	37697	16087
0	58564	37697	16077
0	58570	37697	16067
0	58576	37697	16057
0	58582	37697	16047
0	58588	37697	16037
0	58594	37697	16027
0	58600	37697	16017
0	58606	37697	16007
0	58612	37697	15997
0	58618	37697	15987
0	58624	37697	15977
0	58630	37697	15967
0	58636	37697	15957
0	58642	37697	15947
0	58648	37697	15937
0	58654	37697	15927
0	58660	37697	15917
0	58666	37697	15907
0	58672	37697	15897
0	58678	37697	15887
0	58684	37697	15877
0	58690	37697	15867
0	58696	37697	15857
0	58702	37697	15847
0	58708	37697	15837
0	58714	37697	15827
0	58720	37697	15817
0	58726	37697	15807
0	58732	37697	15797
0	58738	37697	15787
0	58744	37697	15777
0	58750	37697	15767
0	58756	37697	15757
0	58762	37697	15747
0	58768	37697	15737
0	58774	37697	15727
0	58780	37697	15717
0	58786	37697	15707
0	58792	37697	15697
0	58798	37697	15687
0	58804	37697	15677
0	58810	37697	15667
0	58816	37697	15657
0	58822	37697	15647
0	58828	37697	15637
0	58834	37697	15627
0	58840	37697	15617
0	58846	37697	15607
0	58852	37697	15597
0	58858	37697	15587
0	58864	37697	15577
0	58870	37697	15567
0	58876	37697	15557
0	58882	37697	15547
0	58888	37697	15537
0	58894	37697	15527
0	58900	37697	15517
0	58906	37697	15507
0	58912	37697	15497
0	58918	37697	15487
0	58924	37697	15477
0	58930	37697	15467
0	58936	37697	15457
0	58942	37697	15447
0	58948	37697	15437
0	58954	37697	15427
0	58960	37697	15417
0	58966	37697	15407
0	58972	37697	15397
0	58978	37697	15387
0	58984	37697	15377
0	58990	37697	15367
0	58996	37697	15357
0	59002	37697	15347
0	59008	37697	15337
0	59014	37697	15327
0	59020	37697	15317
0	59026	37697	15307
0	59032	37697	15297
0	59038	37697	15287
0	59044	37697	15277
0	59050	37697	15267
0	59056	37697	15257
0	59062	37697	15247
0	59068	37697	15237
0	59074	37697	15227
0	59080	37697	15217
0	59086	37697	15207
0	59092	37697	15197
0	59098	37697	15187
0	59104	37697	15177
0	59110	37697	15167
0	59116	37697	15157
0	59122	37697	15147
0	59128	37697	15137
0	59134	37697	15127
0	59140	37697	15117
0	59146	37697	15107
0	59152	37697	15097
0	59158	37697	15087
0	59164	37697	15077
0	59170	37697	15067
0	59176	37697	15057
0	59182	37697	15047
0	59188	37697	15037
0	59194	37697	15027
0	59200	37697	15017
0	59206	37697	15007
0	59212	37697	14997
0	59218	37697	14987
0	59224	37697	14977
0	59230	37697	14967
0	59236	37697	14957
0	59242	37697	14947
0	59248	37697	14937
0	59254	37697	14927
0	59260	37697	14917
0	59266	37697	14907
0	59272	37697	14897
0	59278	37697	14887
0	59284	37697	14877
0	59290	37697	14867
0	59296	37697	14857
0	59302	37697	14847
0	59308	37697	14837
0	59314	37697	14827
0	59320	37697	14817
0	59326	37697	14807
0	59332	37697	14797
0	59338	37697	14787
0	59344	37697	14777
0	59350	37697	14767
0	59356	37697	14757
0	59362	37697	14747
0	59368	37697	14737
0	59374	37697	14727
0	59380	37697	14717
0	59386	37697	14707
0	59392	37697	14697
0	59398	37697	14687
0	59404	37697	14677
0	59410	37697	14667
0	59416	37697	14657
0	59422	37697	14647
0	59428	37697	14637
0	59434	37697	14627
0	59440	37697	14617
0	59446	37697	14607
0	59452	37697	14597
0	59458	37697	14587
0	59464	37697	14577
0	59470	37697	14567
0	59476	37697	14557
0	59482	37697	14547
0	59488	37697	14537
0	59494	37697	14527
0	59500	37697	14517
0	59506	37697	14507
0	59512	37697	14497
0	59518	37697	14487
0	59524	37697	14477
0	59530	37697	14467
0	59536	37697	14457
0	59542	37697	14447
0	59548	37697	14437
0	59554	37697	14427
0	59560	37697	14417
0	59566	37697	14407
0	59572	37697	14397
0	59578	37697	14387
0	59584	37697	14377
0	59590	37697	14367
0	59596	37697	14357
0	59602	37697	14347
0	59608	37697	14337
0	59614	37697	14327
0	59620	37697	14317
0	59626	37697	14307
0	59632	37697	14297
0	59638	37697	14287
0	59644	37697	14277
0	59650	37697	14267
0	59656	37697	14257
0	59662	37697	14247
0	59668	37697	14237
0	59674	37697	14227
0	59680	37697	14217
0	59686	37697	14207
0	59692	37697	14197
0	59698	37697	14187
0	59704	37697	14177
0	59710	37697	14167
0	59716	37697	14157
0	59722	37697	14147
0	59728	37697	14137
0	59734	37697	14127
0	59740	37697	14117
0	59746	37697	14107
0	59752	37697	14097
0	59758	37697	14087
0	59764	37697	14077
0	59770	37697	14067
0	59776	37697	14057
0	59782	37697	14047
0	59788	37697	14037
0	59794	37697	14027
0	59800	37697	14017
0	59806	37697	14007
0	59812	37697	13997
0	59818	37697	13987
0	59824	37697	13977
0	59830	37697	13967
0	59836	37697	13957
0	59842	37697	13947
0	59848	37697	13937
0	59854	37697	13927
0	59860	37697	13917
0	59866	37697	13907
0	59872	37697	13897
0	59878	37697	13887
0	59884	37697	13877
0	59890	37697	13867
0	59896	37697	13857
0	59902	37697	13847
0	59908	37697	13837
0	59914	37697	13827
0	59920	37697	13817
0	59926	37697	13807
0	59932	37697	13797
0	59938	37697	13787
0	59944	37697	13777
0	59950	37697	13767
0	59956	37697	13757
0	59962	37697	13747
0	59968	37697	13737
0	59974	37697	13727
0	59980	37697	13717
0	59986	37697	13707
0	59992	37697	13697
0	59998	37697	13687
0	60004	37697	13677
0	60010	37697	13667
0	60016	37697	13657
0	60022	37697	13647
0	60028	37697	13637
0	60034	37697	13627
0	60040	37697	13617
0	60046	37697	13607
0	60052	37697	13597
0	60058	37697	13587
0	60064	37697	13577
0	60070	37697	13567
0	60076	37697	13557
0	60082	37697	13547
0	60088	37697	13537
0	60094	37697	13527
0	60100	37697	13517
0	60106	37697	13507
0	60112	37697	13497
0	60118	37697	13487
0	60124	37697	13477
0	60130	37697	13467
0	60136	37697	13457
0	60142	37697	13447
0	60148	37697	13437
0	60154	37697	13427
0	60160	37697	13417
0	60166	37697	13407
0	60172	37697	13397
0	60178	37697	13387
0	60184	37697	13377
0	60190	37697	13367
0	60196	37697	13357
0	60202	37697	13347
0	60208	37697	13337
0	60214	37697	13327
0	60220	37697	13317
0	60226	37697	13307
0	60232	37697	13297
0	60238	37697	13287
0	60244	37697	13277
0	60250	37697	13267
0	60256	37697	13257
0	60262	37697	13247
0	60268	37697	13237
0	60274	37697	13227
0	60280	37697	13217
0	60286	37697	13207
0	60292	37697	13197
0	60298	37697	13187
0	60304	37697	13177
0	60310	37697	13167
0	60316	37697	13157
0	60322	37697	13147
0	60328	37697	13137
0	60334	37697	13127
0	60340	37697	13117
0	60346	37697	13107
0	60352	37697	13097
0	60358	37697	13087
0	60364	37697	13077
0	60370	37697	13067
0	60376	37697	13057
0	60382	37697	13047
0	60388	37697	13037
0	60394	37697	13027
0	60400	37697	13017
0	60406	37697	13007
0	60412	37697	12997
0	60418	37697	12987
0	60424	37697	12977
0	60430	37697	12967
0	60436	37697	12957
0	60442	37697	12947
0	60448	37697	12937
0	60454	37697	12927
0	60460	37697	12917
0	60466	37697	12907
0	60472	37697	12897
0	60478	37697	12887
0	60484	37697	12877
0	60490	37697	12867
0	60496	37697	12857
0	60502	37697	12847
0	60508	37697	12837
0	60514	37697	12827
0	60520	37697	12817
0	60526	37697	12807
0	60532	37697	12797
0	60538	37697	12787
0	60544	37697	12777
0	60550	37697	12767
0	60556	37697	12757
0	60562	37697	12747
0	60568	37697	12737
0	60574	37697	12727
0	60580	37697	12717
0	60586	37697	12707
0	60592	37697	12697
0	60598	37697	12687
0	60604	37697	12677
0	60610	37697	12667
0	60616	37697	12657
0	60622	37697	12647
0	60628	37697	12637
0	60634	37697	12627
0	60640	37697	12617
0	60646	37697	12607
0	60652	37697	12597
0	60658	37697	12587
0	60664	37697	12577
0	60670	37697	12567
0	60676	37697	12557
0	60682	37697	12547
0	60688	37697	12537
0	60694	37697	12527
0	60700	37697	12517
0	60706	37697	12507
0	60712	37697	12497
0	60718	37697	12487
0	60724	37697	12477
0	60730	37697	12467
0	60736	37697	12457
0	60742	37697	12447
0	60748	37697	12437
0	60754	37697	12427
0	60760	37697	12417
0	60766	37697	12407
0	60772	37697	12397
0	60778	37697	12387
0	60784	37697	12377
0	60790	37697	12367
0	60796	37697	12357
0	60802	37697	12347
0	60808	37697	12337
0	60814	37697	12327
0	60820	37697	12317
0	60826	37697	12307
0	60832	37697	12297
0	60838	37697	12287
0	60844	37697	12277
0	60850	37697	12267
0	60856	37697	12257
0	60862	37697	12247
0	60868	37697	12237
0	60874	37697	12227
0	60880	37697	12217
0	60886	37697	12207
0	60892	37697	12197
0	60898	37697	12187
0	60904	37697	12177
0	60910	37697	12167
0	60916	37697	12157
0	60922	37697	12147
0	60928	37697	12137
0	60934	37697	12127
0	60940	37697	12117
0	60946	37697	12107
0	60952	37697	12097
0	60958	37697	12087
0	60964	37697	12077
0	60970	37697	12067
0	60976	37697	12057
0	60982	37697	12047
0	60988	37697	12037
0	60994	37697	12027
0	61000	37697	12017
0	61006	37697	12007
0	61012	37697	11997
0	61018	37697	11987
0	61024	37697	11977
0	61030	37697	11967
0	61036	37697	11957
0	61042	37697	11947
0	61048	37697	11937
0	61054	37697	11927
0	61060	37697	11917
0	61066	37697	11907
0	61072	37697	11897
0	61078	37697	11887
0	61084	37697	11877
0	61090	37697	11867
0	61096	37697	11857
0	61102	37697	11847
0	61108	37697	11837
0	61114	37697	11827
0	61120	37697	11817
0	61126	37697	11807
0	61132	37697	11797
0	61138	37697	11787
0	61144	37697	11777
0	61150	37697	11767
0	61156	37697	11757
0	61162	37697	11747
0	61168	37697	11737
0	61174	37697	11727
0	61180	37697	11717
0	61186	37697	11707
0	61192	37697	11697
0	61198	37697	11687
0	61204	37697	11677
0	61210	37697	11667
0	61216	37697	11657
0	61222	37697	11647
0	61228	37697	11637
0	61234	37697	11627
0	61240	37697	11617
0	61246	37697	11607
0	61252	37697	11597
0	61258	37697	11587
0	61264	37697	11577
0	61270	37697	11567
0	61276	37697	11557
0	61282	37697	11547
0	61288	37697	11537
0	61294	37697	11527
0	61300	37697	11517
0	61306	37697	11507
0	61312	37697	11497
0	61318	37697	11487
0	61324	37697	11477
0	61330	37697	11467
0	61336	37697	11457
0	61342	37697	11447
0	61348	37697	11437
0	61354	37697	11427
0	61360	37697	11417
0	61366	37697	11407
0	61372	37697	11397
0	61378	37697	11387
0	61384	37697	11377
0	61390	37697	11367
0	61396	37697	11357
0	61402	37697	11347
0	61408	37697	11337
0	61414	37697	11327
0	61420	37697	11317
0	61426	37697	11307
0	61432	37697	11297
0	61438	37697	11287
0	61444	37697	11277
0	61450	37697	11267
0	61456	37697	11257
0	61462	37697	11247
0	61468	37697	11237
0	61474	37697	11227
0	61480	37697	11217
0	61486	37697	11207
0	61492	37697	11197
0	61498	37697	11187
0	61504	37697	11177
0	61510	37697	11167
0	61516	37697	11157
0	61522	37697	11147
0	61528	37697	11137
0	61534	37697	11127
0	61540	37697	11117
0	61546	37697	11107
0	61552	37697	11097
0	61558	37697	11087
0	61564	37697	11077
0	61570	37697	11067
0	61576	37697	11057
0	61582	37697	11047
0	61588	37697	11037
0	61594	37697	11027
0	61600	37697	11017
0	61606	37697	11007
0	61612	37697	10997
0	61618	37697	10987
0	61624	37697	10977
0	61630	37697	10967
0	61636	37697	10957
0	61642	37697	10947
0	61648	37697	10937
0	61654	37697	10927
0	61660	37697	10917
0	61666	37697	10907
0	61672	37697	10897
0	61678	37697	10887
0	61684	37697	10877
0	61690	37697	10867
0	61696	37697	10857
0	61702	37697	10847
0	61708	37697	10837
0	61714	37697	10827
0	61720	37697	10817
0	61726	37697	10807
0	61732	37697	10797
0	61738	37697	10787
0	61744	37697	10777
0	61750	37697	10767
0	61756	37697	10757
0	61762	37697	10747
0	61768	37697	10737
0	61774	37697	10727
0	61780	37697	10717
0	61786	37697	10707
0	61792	37697	10697
0	61798	37697	10687
0	61804	37697	10677
0	61810	37697	10667
0	61816	37697	10657
0	61822	37697	10647
0	61828	37697	10637
0	61834	37697	10627
0	61840	37697	10617
0	61846	37697	10607
0	61852	37697	10597
0	61858	37697	10587
0	61864	37697	10577
0	61870	37697	10567
0	61876	37697	10557
0	61882	37697	10547
0	61888	37697	10537
0	61894	37697	10527
0	61900	37697	10517
0	61906	37697	10507
0	61912	37697	10497
0	61918	37697	10487
0	61924	37697	10477
0	61930	37697	10467
0	61936	37697	10457
0	61942	37697	10447
0	61948	37697	10437
0	61954	37697	10427
0	61960	37697	10417
0	61966	37697	10407
0	61972	37697	10397
0	61978	37697	10387
0	61984	37697	10377
0	61990	37697	10367
0	61996	37697	10357
0	62002	37697	10347
0	62008	37697	10337
0	62014	37697	10327
0	62020	37697	10317
0	62026	37697	10307
0	62032	37697	10297
0	62038	37697	10287
0	62044	37697	10277
0	62050	37697	10267
0	62056	37697	10257
0	62062	37697	10247
0	62068	37697	10237
0	62074	37697	10227
0	62080	37697	10217
0	62086	37697	10207
0	62092	37697	10197
0	62098	37697	10187
0	62104	37697	10177
0	62110	37697	10167
0	62116	37697	10157
0	62122	37697	10147
0	62128	37697	10137
0	62134	37697	10127
0	62140	37697	10117
0	62146	37697	10107
0	62152	37697	10097
0	62158	37697	10087
0	62164	37697	10077
0	62170	37697	10067
0	62176	37697	10057
0	62182	37697	10047
0	62188	37697	10037
0	62194	37697	10027
0	62200	37697	10017
0	62206	37697	10007
0	62212	37697	9997
0	62218	37697	9987
0	62224	37697	9977
0	62230	37697	9967
0	62236	37697	9957
0	62242	37697	9947
0	62248	37697	9937
0	62254	37697	9927
0	62260	37697	9917
0	62266	37697	9907
0	62272	37697	9897
0	62278	37697	9887
0	62284	37697	9877
0	62290	37697	9867
0	62296	37697	9857
0	62302	37697	9847
0	62308	37697	9837
0	62314	37697	9827
0	62320	37697	9817
0	62326	37697	9807
0	62332	37697	9797
0	62338	37697	9787
0	62344	37697	9777
0	62350	37697	9767
0	62356	37697	9757
0	62362	37697	9747
0	62368	37697	9737
0	62374	37697	9727
0	62380	37697	9717
0	62386	37697	9707
0	62392	37697	9697
0	62398	37697	9687
0	62404	37697	9677
0	62410	37697	9667
0	62416	37697	9657
0	62422	37697	9647
0	62428	37697	9637
0	62434	37697	9627
0	62440	37697	9617
0	62446	37697	9607
0	62452	37697	9597
0	62458	37697	9587
0	62464	37697	9577
0	62470	37697	9567
0	62476	37697	9557
0	62482	37697	9547
0	62488	37697	9537
0	62494	37697	9527
0	62500	37697	9517
0	62506	37697	9507
0	62512	37697	9497
0	62518	37697	9487
0	62524	37697	9477
0	62530	37697	9467
0	62536	37697	9457
0	62542	37697	9447
0	62548	37697	9437
0	62554	37697	9427
0	62560	37697	9417
0	62566	37697	9407
0	62572	37697	9397
0	62578	37697	9387
0	62584	37697	9377
0	62590	37697	9367
0	62596	37697	9357
0	62602	37697	9347
0	62608	37697	9337
0	62614	37697	9327
0	62620	37697	9317
0	62626	37697	9307
0	62632	37697	9297
0	62638	37697	9287
0	62644	37697	9277
0	62650	37697	9267
0	62656	37697	9257
0	62662	37697	9247
0	62668	37697	9237
0	62674	37697	9227
0	62680	37697	9217
0	62686	37697	9207
0	62692	37697	9197
0	62698	37697	9187
0	62704	37697	9177
0	62710	37697	9167
0	62716	37697	9157
0	62722	37697	9147
0	62728	37697	9137
0	62734	37697	9127
0	62740	37697	9117
0	62746	37697	9107
0	62752	37697	9097
0	62758	37697	9087
0	62764	37697	9077
0	62770	37697	9067
0	62776	37697	9057
0	62782	37697	9047
0	62788	37697	9037
0	62794	37697	9027
0	62800	37697	9017
0	62806	37697	9007
0	62812	37697	8997
0	62818	37697	8987
0	62824	37697	8977
0	62830	37697	8967
0	62836	37697	8957
0	62842	37697	8947
0	62848	37697	8937
0	62854	37697	8927
0	62860	37697	8917
0	62866	37697	8907
0	62872	37697	8897
0	62878	37697	8887
0	62884	37697	8877
0	62890	37697	8867
0	62896	37697	8857
0	62902	37697	8847
0	62908	37697	8837
0	62914	37697	8827
0	62920	37697	8817
0	62926	37697	8807
0	62932	37697	8797
0	62938	37697	8787
0	62944	37697	8777
0	62950	37697	8767
0	62956	37697	8757
0	62962	37697	8747
0	62968	37697	8737
0	62974	37697	8727
0	62980	37697	8717
0	62986	37697	8707
0	62992	37697	8697
0	62998	37697	8687
0	63004	37697	8677
0	63010	37697	8667
0	63016	37697	8657
0	63022	37697	8647
0	63028	37697	8637
0	63034	37697	8627
0	63040	37697	8617
0	63046	37697	8607
0	63052	37697	8597
0	63058	37697	8587
0	63064	37697	8577
0	63070	37697	8567
0	63076	37697	8557
0	63082	37697	8547
0	63088	37697	8537
0	63094	37697	8527
0	63100	37697	8517
0	63106	37697	8507
0	63112	37697	8497
0	63118	37697	8487
0	63124	37697	8477
0	63130	37697	8467
0	63136	37697	8457
0	63142	37697	8447
0	63148	37697	8437
0	63154	37697	8427
0	63160	37697	8417
0	63166	37697	8407
0	63172	37697	8397
0	63178	37697	8387
0	63184	37697	8377
0	63190	37697	8367
0	63196	37697	8357
0	63202	37697	8347
0	63208	37697	8337
0	63214	37697	8327
0	63220	37697	8317
0	63226	37697	8307
0	63232	37697	8297
0	63238	37697	8287
0	63244	37697	8277
0	63250	37697	8267
0	63256	37697	8257
0	63262	37697	8247
0	63268	37697	8237
0	63274	37697	8227
0	63280	37697	8217
0	63286	37697	8207
0	63292	37697	8197
0	63298	37697	8187
0	63304	37697	8177
0	63310	37697	8167
0	63316	37697	8157
0	63322	37697	8147
0	63328	37697	8137
0	63334	37697	8127
0	63340	37697	8117
0	63346	37697	8107
0	63352	37697	8097
0	63358	37697	8087
0	63364	37697	8077
0	63370	37697	8067
0	63376	37697	8057
0	63382	37697	8047
0	63388	37697	8037
0	63394	37697	8027
0	63400	37697	8017
0	63406	37697	8007
0	63412	37697	7997
0	63418	37697	7987
0	63424	37697	7977
0	63430	37697	7967
0	63436	37697	7957
0	63442	37697	7947
0	63448	37697	7937
0	63454	37697	7927
0	63460	37697	7917
0	63466	37697	7907
0	63472	37697	7897
0	63478	37697	7887
0	63484	37697	7877
0	63490	37697	7867
0	63496	37697	7857
0	63502	37697	7847
0	63508	37697	7837
0	63514	37697	7827
0	63520	37697	7817
0	63526	37697	7807
0	63532	37697	7797
0	63538	37697	7787
0	63544	37697	7777
0	63550	37697	7767
0	63556	37697	7757
0	63562	37697	7747
0	63568	37697	7737
0	63574	37697	7727
0	63580	37697	7717
0	63586	37697	7707
0	63592	37697	7697
0	63598	37697	7687
0	63604	37697	7677
0	63610	37697	7667
0	63616	37697	7657
0	63622	37697	7647
0	63628	37697	7637
0	63634	37697	7627
0	63640	37697	7617
0	63646	37697	7607
0	63652	37697	7597
0	63658	37697	7587
0	63664	37697	7577
0	63670	37697	7567
0	63676	37697	7557
0	63682	37697	7547
0	63688	37697	7537
0	63694	37697	7527
0	63700	37697	7517
0	63706	37697	7507
0	63712	37697	7497
0	63718	37697	7487
0	63724	37697	7477
0	63730	37697	7467
0	63736	37697	7457
0	63742	37697	7447
0	63748	37697	7437
0	63754	37697	7427
0	63760	37697	7417
0	63766	37697	7407
0	63772	37697	7397
0	63778	37697	7387
0	63784	37697	7377
0	63790	37697	7367
0	63796	37697	7357
0	63802	37697	7347
0	63808	37697	7337
0	63814	37697	7327
0	63820	37697	7317
0	63826	37697	7307
0	63832	37697	7297
0	63838	37697	7287
0	63844	37697	7277
0	63850	37697	7267
0	63856	37697	7257
0	63862	37697	7247
0	63868	37697	7237
0	63874	37697	7227
0	63880	37697	7217
0	63886	37697	7207
0	63892	37697	7197
0	63898	37697	7187
0	63904	37697	7177
0	63910	37697	7167
0	63916	37697	7157
0	63922	37697	7147
0	63928	37697	7137
0	63934	37697	7127
0	63940	37697	7117
0	63946	37697	7107
0	63952	37697	7097
0	63958	37697	7087
0	63964	37697	7077
0	63970	37697	7067
0	63976	37697	7057
0	63982	37697	7047
0	63988	37697	7037
0	63994	37697	7027
0	64000	37697	7017
0	64006	37697	7007
0	64012	37697	6997
0	64018	37697	6987
0	64024	37697	6977
0	64030	37697	6967
0	64036	37697	6957
0	64042	37697	6947
0	64048	37697	6937
0	64054	37697	6927
0	64060	37697	6917
0	64066	37697	6907
0	64072	37697	6897
0	64078	37697	6887
0	64084	37697	6877
0	64090	37697	6867
0	64096	37697	6857
0	64102	37697	6847
0	64108	37697	6837
0	64114	37697	6827
0	64120	37697	6817
0	64126	37697	6807
0	64132	37697	6797
0	64138	37697	6787
0	64144	37697	6777
0	64150	37697	6767
0	64156	37697	6757
0	64162	37697	6747
0	64168	37697	6737
0	64174	37697	6727
0	64180	37697	6717
0	64186	37697	6707
0	64192	37697	6697
0	64198	37697	6687
0	64204	37697	6677
0	64210	37697	6667
0	64216	37697	6657
0	64222	37697	6647
0	64228	37697	6637
0	64234	37697	6627
0	64240	37697	6617
0	64246	37697	6607
0	64252	37697	6597
0	64258	37697	6587
0	64264	37697	6577
0	64270	37697	6567
0	64276	37697	6557
0	64282	37697	6547
0	64288	37697	6537
0	64294	37697	6527
0	64300	37697	6517
0	64306	37697	6507
0	64312	37697	6497
0	64318	37697	6487
0	64324	37697	6477
0	64330	37697	6467
0	64336	37697	6457
0	64342	37697	6447
0	64348	37697	6437
0	64354	37697	6427
0	64360	37697	6417
0	64366	37697	6407
0	64372	37697	6397
0	64378	37697	6387
0	64384	37697	6377
0	64390	37697	6367
0	64396	37697	6357
0	64402	37697	6347
0	64408	37697	6337
0	64414	37697	6327
0	64420	37697	6317
0	64426	37697	6307
0	64432	37697	6297
0	64438	37697	6287
0	64444	37697	6277
0	64450	37697	6267
0	64456	37697	6257
0	64462	37697	6247
0	64468	37697	6237
0	64474	37697	6227
0	64480	37697	6217
0	64486	37697	6207
0	64492	37697	6197
0	64498	37697	6187
0	64504	37697	6177
0	64510	37697	6167
0	64516	37697	6157
0	64522	37697	6147
0	64528	37697	6137
0	64534	37697	6127
0	64540	37697	6117
0	64546	37697	6107
0	64552	37697	6097
0	64558	37697	6087
0	64564	37697	6077
0	64570	37697	6067
0	64576	37697	6057
0	64582	37697	6047
0	64588	37697	6037
0	64594	37697	6027
0	64600	37697	6017
0	64606	37697	6007
0	64612	37697	5997
0	64618	37697	5987
0	64624	37697	5977
0	64630	37697	5967
0	64636	37697	5957
0	64642	37697	5947
0	64648	37697	5937
0	64654	37697	5927
0	64660	37697	5917
0	64666	37697	5907
0	64672	37697	5897
0	64678	37697	5887
0	64684	37697	5877
0	64690	37697	5867
0	64696	37697	5857
0	64702	37697	5847
0	64708	37697	5837
0	64714	37697	5827
0	64720	37697	5817
0	64726	37697	5807
0	64732	37697	5797
0	64738	37697	5787
0	64744	37697	5777
0	64750	37697	5767
0	64756	37697	5757
0	64762	37697	5747
0	64768	37697	5737
0	64774	37697	5727
0	64780	37697	5717
0	64786	37697	5707
0	64792	37697	5697
0	64798	37697	5687
0	64804	37697	5677
0	64810	37697	5667
0	64816	37697	5657
0	64822	37697	5647
0	64828	37697	5637
0	64834	37697	5627
0	64840	37697	5617
0	64846	37697	5607
0	64852	37697	5597
0	64858	37697	5587
0	64864	37697	5577
0	64870	37697	5567
0	64876	37697	5557
0	64882	37697	5547
0	64888	37697	5537
0	64894	37697	5527
0	64900	37697	5517
0	64906	37697	5507
0	64912	37697	5497
0	64918	37697	5487
0	64924	37697	5477
0	64930	37697	5467
0	64936	37697	5457
0	64942	37697	5447
0	64948	37697	5437
0	64954	37697	5427
0	64960	37697	5417
0	64966	37697	5407
0	64972	37697	5397
0	64978	37697	5387
0	64984	37697	5377
0	64990	37697	5367
0	64996	37697	5357
0	65002	37697	5347
0	65008	37697	5337
0	65014	37697	5327
0	65020	37697	5317
0	65026	37697	5307
0	65032	37697	5297
0	65038	37697	5287
0	65044	37697	5277
0	65050	37697	5267
0	65056	37697	5257
0	65062	37697	5247
0	65068	37697	5237
0	65074	37697	5227
0	65080	37697	5217
0	65086	37697	5207
0	65092	37697	5197
0	65098	37697	5187
0	65104	37697	5177
0	65110	37697	5167
0	65116	37697	5157
0	65122	37697	5147
0	65128	37697	5137
0	65134	37697	5127
0	65140	37697	5117
0	65146	37697	5107
0	65152	37697	5097
0	65158	37697	5087
0	65164	37697	5077
0	65170	37697	5067
0	65176	37697	5057
0	65182	37697	5047
0	65188	37697	5037
0	65194	37697	5027
0	65200	37697	5017
0	65206	37697	5007
0	65212	37697	4997
0	65218	37697	4987
0	65224	37697	4977
0	65230	37697	4967
0	65236	37697	4957
0	65242	37697	4947
0	65248	37697	4937
0	65254	37697	4927
0	65260	37697	4917
0	65266	37697	4907
0	65272	37697	4897
0	65278	37697	4887
0	65284	37697	4877
0	65290	37697	4867
0	65296	37697	4857
0	65302	37697	4847
0	65308	37697	4837
0	65314	37697	4827
0	65320	37697	4817
0	65326	37697	4807
0	65332	37697	4797
0	65338	37697	4787
0	65344	37697	4777
0	65350	37697	4767
0	65356	37697	4757
0	65362	37697	4747
0	65368	37697	4737
0	65374	37697	4727
0	65380	37697	4717
0	65386	37697	4707
0	65392	37697	4697
0	65398	37697	4687
0	65404	37697	4677
0	65410	37697	4667
0	65416	37697	4657
0	65422	37697	4647
0	65428	37697	4637
0	65434	37697	4627
0	65440	37697	4617
0	65446	37697	4607
0	65452	37697	4597
0	65458	37697	4587
0	65464	37697	4577
0	65470	37697	4567
0	65476	37697	4557
0	65482	37697	4547
0	65488	37697	4537
0	65494	37697	4527
0	65500	37697	4517
0	65506	37697	4507
0	65512	37697	4497
0	65518	37697	4487
0	65524	37697	4477
0	65530	37697	4467
0	65536	37697	4457
0	65542	37697	4447
0	65548	37697	4437
0	65554	37697	4427
0	65560	37697	4417
0	65566	37697	4407
0	65572	37697	4397
0	65578	37697	4387
0	65584	37697	4377
0	65590	37697	4367
0	65596	37697	4357
0	65602	37697	4347
0	65608	37697	4337
0	65614	37697	4327
0	65620	37697	4317
0	65626	37697	4307
0	65632	37697	4297
0	65638	37697	4287
0	65644	37697	4277
0	65650	37697	4267
0	65656	37697	4257
0	65662	37697	4247
0	65668	37697	4237
0	65674	37697	4227
0	65680	37697	4217
0	65686	37697	4207
0	65692	37697	4197
0	65698	37697	4187
0	65704	37697	4177
0	65710	37697	4167
0	65716	37697	4157
0	65722	37697	4147
0	65728	37697	4137
0	65734	37697	4127
0	65740	37697	4117
0	65746	37697	4107
0	65752	37697	4097
0	65758	37697	4087
0	65764	37697	4077
0	65770	37697	4067
0	65776	37697	4057
0	65782	37697	4047
0	65788	37697	4037
0	65794	37697	4027
0	65800	37697	4017
0	65806	37697	4007
0	65812	37697	3997
0	65818	37697	3987
0	65824	37697	3977
0	65830	37697	3967
0	65836	37697	3957
0	65842	37697	3947
0	65848	37697	3937
0	65854	37697	3927
0	65860	37697	3917
0	65866	37697	3907
0	65872	37697	3897
0	65878	37697	3887
0	65884	37697	3877
0	65890	37697	3867
0	65896	37697	3857
0	65902	37697	3847
0	65908	37697	3837
0	65914	37697	3827
0	65920	37697	3817
0	65926	37697	3807
0	65932	37697	3797
0	65938	37697	3787
0	65944	37697	3777
0	65950	37697	3767
0	65956	37697	3757
0	65962	37697	3747
0	65968	37697	3737
0	65974	37697	3727
0	65980	37697	3717
0	65986	37697	3707
0	65992	37697	3697
0	65998	37697	3687
0	66004	37697	3677
0	66010	37697	3667
0	66016	37697	3657
0	66022	37697	3647
0	66028	37697	3637
0	66034	37697	3627
0	66040	37697	3617
0	66046	37697	3607
0	66052	37697	3597
0	66058	37697	3587
0	66064	37697	3577
0	66070	37697	3567
0	66076	37697	3557
0	66082	37697	3547
0	66088	37697	3537
0	66094	37697	3527
0	66100	37697	3517
0	66106	37697	3507
0	66112	37697	3497
0	66118	37697	3487
0	66124	37697	3477
0	66130	37697	3467
0	66136	37697	3457
0	66142	37697	3447
0	66148	37697	3437
0	66154	37697	3427
0	66160	37697	3417
0	66166	37697	3407
0	66172	37697	3397
0	66178	37697	3387
0	66184	37697	3377
0	66190	37697	3367
0	66196	37697	3357
0	66202	37697	3347
0	66208	37697	3337
0	66214	37697	3327
0	66220	37697	3317
0	66226	37697	3307
0	66232	37697	3297
0	66238	37697	3287
0	66244	37697	3277
0	66250	37697	3267
0	66256	37697	3257
0	66262	37697	3247
0	66268	37697	3237
0	66274	37697	3227
0	66280	37697	3217
0	66286	37697	3207
0	66292	37697	3197
0	66298	37697	3187
0	66304	37697	3177
0	66310	37697	3167
0	66316	37697	3157
0	66322	37697	3147
0	66328	37697	3137
0	66334	37697	3127
0	66340	37697	3117
0	66346	37697	3107
0	66352	37697	3097
0	66358	37697	3087
0	66364	37697	3077
0	66370	37697	3067
0	66376	37697	3057
0	66382	37697	3047
0	66388	37697	3037
0	66394	37697	3027
0	66400	37697	3017
0	66406	37697	3007
0	66412	37697	2997
0	66418	37697	2987
0	66424	37697	2977
0	66430	37697	2967
0	66436	37697	2957
0	66442	37697	2947
0	66448	37697	2937
0	66454	37697	2927
0	66460	37697	2917
0	66466	37697	2907
0	66472	37697	2897
0	66478	37697	2887
0	66484	37697	2877
0	66490	37697	2867
0	66496	37697	2857
0	66502	37697	2847
0	66508	37697	2837
0	66514	37697	2827
0	66520	37697	2817
0	66526	37697	2807
0	66532	37697	2797
0	66538	37697	2787
0	66544	37697	2777
0	66550	37697	2767
0	66556	37697	2757
0	66562	37697	2747
0	66568	37697	2737
0	66574	37697	2727
0	66580	37697	2717
0	66586	37697	2707
0	66592	37697	2697
0	66598	37697	2687
0	66604	37697	2677
0	66610	37697	2667
0	66616	37697	2657
0	66622	37697	2647
0	66628	37697	2637
0	66634	37697	2627
0	66640	37697	2617
0	66646	37697	2607
0	66652	37697	2597
0	66658	37697	2587
0	66664	37697	2577
0	66670	37697	2567
0	66676	37697	2557
0	66682	37697	2547
0	66688	37697	2537
0	66694	37697	2527
0	66700	37697	2517
0	66706	37697	2507
0	66712	37697	2497
0	66718	37697	2487
0	66724	37697	2477
0	66730	37697	2467
0	66736	37697	2457
0	66742	37697	2447
0	66748	37697	2437
0	66754	37697	2427
0	66760	37697	2417
0	66766	37697	2407
0	66772	37697	2397
0	66778	37697	2387
0	66784	37697	2377
0	66790	37697	2367
0	66796	37697	2357
0	66802	37697	2347
0	66808	37697	2337
0	66814	37697	2327
0	66820	37697	2317
0	66826	37697	2307
0	66832	37697	2297
0	66838	37697	2287
0	66844	37697	2277
0	66850	37697	2267
0	66856	37697	2257
0	66862	37697	2247
0	66868	37697	2237
0	66874	37697	2227
0	66880	37697	2217
0	66886	37697	2207
0	66892	37697	2197
0	66898	37697	2187
0	66904	37697	2177
0	66910	37697	2167
0	66916	37697	2157
0	66922	37697	2147
0	66928	37697	2137
0	66934	37697	2127
0	66940	37697	2117
0	66946	37697	2107
0	66952	37697	2097
0	66958	37697	2087
0	66964	37697	2077
0	66970	37697	2067
0	66976	37697	2057
0	66982	37697	2047
0	66988	37697	2037
0	66994	37697	2027
0	67000	37697	2017
0	67006	37697	2007
0	67012	37697	1997
0	67018	37697	1987
0	67024	37697	1977
0	67030	37697	1967
0	67036	37697	1957
0	67042	37697	1947
0	67048	37697	1937
0	67054	37697	1927
0	67060	37697	1917
0	67066	37697	1907
0	67072	37697	1897
0	67078	37697	1887
0	67084	37697	1877
0	67090	37697	1867
0	67096	37697	1857
0	67102	37697	1847
0	67108	37697	1837
0	67114	37697	1827
0	67120	37697	1817
0	67126	37697	1807
0	67132	37697	1797
0	67138	37697	1787
0	67144	37697	1777
0	67150	37697	1767
0	67156	37697	1757
0	67162	37697	1747
0	67168	37697	1737
0	67174	37697	1727
0	67180	37697	1717
0	67186	37697	1707
0	67192	37697	1697
0	67198	37697	1687
0	67204	37697	1677
0	67210	37697	1667
0	67216	37697	1657
0	67222	37697	1647
0	67228	37697	1637
0	67234	37697	1627
0	67240	37697	1617
0	67246	37697	1607
0	67252	37697	1597
0	67258	37697	1587
0	67264	37697	1577
0	67270	37697	1567
0	67276	37697	1557
0	67282	37697	1547
0	67288	37697	1537
0	67294	37697	1527
0	67300	37697	1517
0	67306	37697	1507
0	67312	37697	1497
0	67318	37697	1487
0	67324	37697	1477
0	67330	37697	1467
0	67336	37697	1457
0	67342	37697	1447
0	67348	37697	1437
0	67354	37697	1427
0	67360	37697	1417
0	67366	37697	1407
0	67372	37697	1397
0	67378	37697	1387
0	67384	37697	1377
0	67390	37697	1367
0	67396	37697	1357
0	67402	37697	1347
0	67408	37697	1337
0	67414	37697	1327
0	67420	37697	1317
0	67426	37697	1307
0	67432	37697	1297
0	67438	37697	1287
0	67444	37697	1277
0	67450	37697	1267
0	67456	37697	1257
0	67462	37697	1247
0	67468	37697	1237
0	67474	37697	1227
0	67480	37697	1217
0	67496	37700	1210
0	67516	37710	1210
0	67535	37720	1210
0	67554	37730	1210
0	67573	37740	1210
0	67592	37750	1210
0	67611	37760	1210
0	67630	37770	1210
0	67649	37780	1210
0	67668	37790	1210
0	67687	37800	1210
0	67706	37810	1210
0	67725	37820	1210
0	67744	37830	1210
0	67763	37840	1210
0	67782	37850	1210
0	67801	37860	1210
0	67820	37870	1210
0	67839	37880	1210
0	67858	37890	1210
0	67877	37900	1210
0	67896	37910	1210
0	67915	37920	1210
0	67934	37930	1210
0	67953	37940	1210
0	67972	37950	1210
0	67991	37960	1210
0	68010	37970	1210
0	68029	37980	1210
0	68048	37990	1210
0	68067	38000	1210
0	68086	38010	1210
0	68105	38020	1210
0	68124	38030	1210
0	68143	38040	1210
0	68162	38050	1210
0	68181	38060	1210
0	68200	38070	1210
0	68219	38080	1210
0	68238	38090	1210
0	68257	38100	1210
0	68276	38110	1210
0	68295	38120	1210
0	68314	38130	1210
0	68333	38140	1210
0	68352	38150	1210
0	68371	38160	1210
0	68390	38170	1210
0	68409	38180	1210
0	68428	38190	1210
0	68447	38200	1210
0	68466	38210	1210
0	68485	38220	1210
0	68504	38230	1210
0	68523	38240	1210
0	68542	38250	1210
0	68561	38260	1210
0	68580	38270	1210
0	68599	38280	1210
0	68618	38290	1210
0	68637	38300	1210
0	68656	38310	1210
0	68675	38320	1210
0	68694	38330	1210
0	68713	38340	1210
0	68732	38350	1210
0	68751	38360	1210
0	68770	38370	1210
0	68789	38380	1210
0	68808	38390	1210
0	68827	38400	1210
0	68846	38410	1210
0	68865	38420	1210
0	68884	38430	1210
0	68903	38440	1210
0	68922	38450	1210
0	68941	38460	1210
0	68960	38470	1210
0	68979	38480	1210
0	68998	38490	1210
0	69017	38500	1210
0	69036	38510	1210
0	69055	38520	1210
0	69074	38530	1210
0	69093	38540	1210
0	69112	38550	1210
0	69131	38560	1210
0	69150	38570	1210
0	69169	38580	1210
0	69188	38590	1210
0	69207	38600	1210
0	69226	38610	1210
0	69245	38620	1210
0	69264	38630	1210
0	69283	38640	1210
0	69302	38650	1210
0	69321	38660	1210
0	69340	38670	1210
0	69359	38680	1210
0	69378	38690	1210
0	69397	38700	1210
0	69416	38710	1210
0	69435	38720	1210
0	69454	38730	1210
0	69473	38740	1210
0	69492	38750	1210
0	69511	38760	1210
0	69530	38770	1210
0	69549	38780	1210
0	69568	38790	1210
0	69587	38800	1210
0	69606	38810	1210
0	69625	38820	1210
0	69644	38830	1210
0	69663	38840	1210
0	69682	38850	1210
0	114434	67402	29752
0	114440	67402	29742
0	114446	67402	29732
0	114452	67402	29722
0	114458	67402	29712
0	114464	67402	29702
0	114470	67402	29692
0	114476	67402	29682
0	114482	67402	29672
0	114488	67402	29662
0	114494	67402	29652
0	114500	67402	29642
0	114506	67402	29632
0	114512	67402	29622
0	114518	67402	29612
0	114524	67402	29602
0	114530	67402	29592
0	114536	67402	29582
0	114542	67402	29572
0	114548	67402	29562
0	114554	67402	29552
0	114560	67402	29542
0	114566	67402	29532
0	114572	67402	29522
0	114578	67402	29512
0	114584	67402	29502
0	114590	67402	29492
0	114596	67402	29482
0	114602	67402	29472
0	114608	67402	29462
0	114614	67402	29452
0	114620	67402	29442
0	114626	67402	29432
0	114632	67402	29422
0	114638	67402	29412
0	114644	67402	29402
0	114650	67402	29392
0	114656	67402	29382
0	114662	67402	29372
0	114668	67402	29362
0	114674	67402	29352
0	114680	67402	29342
0	114686	67402	29332
0	114692	67402	29322
0	114698	67402	29312
0	114704	67402	29302
0	114710	67402	29292
0	114716	67402	29282
0	114722	67402	29272
0	114728	67402	29262
0	114734	67402	29252
0	114740	67402	29242
0	114746	67402	29232
0	114752	67402	29222
0	114758	67402	29212
0	114764	67402	29202
0	114770	67402	29192
0	114776	67402	29182
0	114782	67402	29172
0	114788	67402	29162
0	114794	67402	29152
0	114800	67402	29142
0	114806	67402	29132
0	114812	67402	29122
0	114818	67402	29112
0	114824	67402	29102
0	114830	67402	29092
0	114836	67402	29082
0	114842	67402	29072
0	114848	67402	29062
0	114854	67402	29052
0	114860	67402	29042
0	114866	67402	29032
0	114872	67402	29022
0	114878	67402	29012
0	114884	67402	29002
0	114890	67402	28992
0	114896	67402	28982
0	114902	67402	28972
0	114908	67402	28962
0	114914	67402	28952
0	114920	67402	28942
0	114926	67402	28932
0	114932	67402	28922
0	114938	67402	28912
0	114944	67402	28902
0	114950	67402	28892
0	114956	67402	28882
0	114962	67402	28872
0	114968	67402	28862
0	114974	67402	28852
0	114980	67402	28842
0	114986	67402	28832
0	114992	67402	28822
0	114998	67402	28812
0	115004	67402	28802
0	115010	67402	28792
0	115016	67402	28782
0	115022	67402	28772
0	115028	67402	28762
0	115034	67402	28752
0	115040	67402	28742
0	115046	67402	28732
0	115052	67402	28722
0	115058	67402	28712
0	115064	67402	28702
0	115070	67402	28692
0	115076	67402	28682
0	115082	67402	28672
0	115088	67402	28662
0	115094	67402	28652
0	115100	67402	28642
0	115106	67402	28632
0	115112	67402	28622
0	115118	67402	28612
0	115124	67402	28602
0	115130	67402	28592
0	115136	67402	28582
0	115142	67402	28572
0	115148	67402	28562
0	115154	67402	28552
0	115160	67402	28542
0	115166	67402	28532
0	115172	67402	28522
0	115178	67402	28512
0	115184	67402	28502
0	115190	67402	28492
0	115196	67402	28482
0	115202	67402	28472
0	115208	67402	28462
0	115214	67402	28452
0	115220	67402	28442
0	115226	67402	28432
0	115232	67402	28422
0	115238	67402	28412
0	115244	67402	28402
0	115250	67402	28392
0	115256	67402	28382
0	115262	67402	28372
0	115268	67402	28362
0	115274	67402	28352
0	115280	67402	28342
0	115286	67402	28332
0	115292	67402	28322
0	115298	67402	28312
0	115304	67402	28302
0	115310	67402	28292
0	115316	67402	28282
0	115322	67402	28272
0	115328	67402	28262
0	115334	67402	28252
0	115340	67402	28242
0	115346	67402	28232
0	115352	67402	28222
0	115358	67402	28212
0	115364	67402	28202
0	115370	67402	28192
0	115376	67402	28182
0	115382	67402	28172
0	115388	67402	28162
0	115394	67402	28152
0	115400	67402	28142
0	115406	67402	28132
0	115412	67402	28122
0	115418	67402	28112
0	115424	67402	28102
0	115430	67402	28092
0	115436	67402	28082
0	115442	67402	28072
0	115448	67402	28062
0	115454	67402	28052
0	115460	67402	28042
0	115466	67402	28032
0	115472	67402	28022
[...]
0	152317	70860	1190
0	152416	70870	1190
0	152515	70880	1190
0	152614	70890	1190
0	152713	70900	1190
0	152812	70910	1190
0	152915	70920	1190
0	153014	70930	1190
0	169852	73700	3950
0	169915	73700	3940
0	169921	73700	3930
0	169927	73700	3920
0	169933	73700	3910
0	169939	73700	3900
0	169945	73700	3890
0	169951	73700	3880
0	169957	73700	3870
0	169963	73700	3860
0	169969	73700	3850
0	169975	73700	3840
0	169981	73700	3830
0	169987	73700	3820
0	169993	73700	3810
0	169999	73700	3800
0	170005	73700	3790
0	170011	73700	3780
0	170017	73700	3770
0	170023	73700	3760
0	170029	73700	3750
0	170035	73700	3740
0	170041	73700	3730
0	170047	73700	3720
0	170053	73700	3710
0	170059	73700	3700
0	170065	73700	3690
0	170071	73700	3680
0	170077	73700	3670
0	170083	73700	3660
0	170089	73700	3650
0	170095	73700	3640
0	170101	73700	3630
0	170107	73700	3620
0	170113	73700	3610
0	170119	73700	3600
0	170125	73700	3590
0	170131	73700	3580
0	170137	73700	3570
0	170143	73700	3560
0	170149	73700	3550
0	170155	73700	3540
0	170161	73700	3530
0	170167	73700	3520
0	170173	73700	3510
0	170179	73700	3500
0	170185	73700	3490
0	170191	73700	3480
0	170197	73700	3470
0	170203	73700	3460
0	170209	73700	3450
0	170215	73700	3440
0	170221	73700	3430
0	170227	73700	3420
0	170233	73700	3410
0	170239	73700	3400
0	170245	73700	3390
0	170251	73700	3380
0	170257	73700	3370
0	170263	73700	3360
0	170269	73700	3350
0	170275	73700	3340
0	170281	73700	3330
0	170287	73700	3320
0	170293	73700	3310
0	170299	73700	3300
0	170305	73700	3290
0	170311	73700	3280
0	170317	73700	3270
0	170323	73700	3260
0	170329	73700	3250
0	170335	73700	3240
0	170341	73700	3230
0	170347	73700	3220
0	170353	73700	3210
0	170359	73700	3200
0	170365	73700	3190
0	170371	73700	3180
0	170377	73700	3170
0	170383	73700	3160
0	170389	73700	3150
0	170395	73700	3140
0	170401	73700	3130
0	170407	73700	3120
0	170413	73700	3110
0	170419	73700	3100
0	170425	73700	3090
0	170431	73700	3080
0	170437	73700	3070
0	170443	73700	3060
0	170449	73700	3050
0	170455	73700	3040
0	170461	73700	3030
0	170467	73700	3020
0	170473	73700	3010
0	170479	73700	3000
0	170485	73700	2990
0	170491	73700	2980
0	170497	73700	2970
0	170503	73700	2960
0	170509	73700	2950
0	170515	73700	2940
0	170521	73700	2930
0	170527	73700	2920
0	170533	73700	2910
0	170539	73700	2900
0	170545	73700	2890
0	170551	73700	2880
0	170557	73700	2870
0	170563	73700	2860
0	170569	73700	2850
0	170575	73700	2840
0	170581	73700	2830
0	170587	73700	2820
0	170593	73700	2810
0	170599	73700	2800
0	170605	73700	2790
0	170611	73700	2780
0	170617	73700	2770
0	170623	73700	2760
0	170629	73700	2750
0	170635	73700	2740
0	170641	73700	2730
0	170647	73700	2720
0	170653	73700	2710
0	170659	73700	2700
0	170665	73700	2690
0	170671	73700	2680
0	170677	73700	2670
0	170683	73700	2660
0	170689	73700	2650
0	170695	73700	2640
0	170701	73700	2630
0	170707	73700	2620
0	170713	73700	2610
0	170719	73700	2600
0	170725	73700	2590
0	170731	73700	2580
0	170737	73700	2570
0	170743	73700	2560
0	170749	73700	2550
0	170755	73700	2540
0	170761	73700	2530
0	170767	73700	2520
0	170773	73700	2510
0	170779	73700	2500
0	170785	73700	2490
0	170791	73700	2480
0	170797	73700	2470
0	170803	73700	2460
0	170809	73700	2450
0	170815	73700	2440
0	170821	73700	2430
0	170827	73700	2420
0	170833	73700	2410
0	170839	73700	2400
0	170845	73700	2390
0	170851	73700	2380
0	170857	73700	2370
0	170863	73700	2360
0	170869	73700	2350
0	170875	73700	2340
0	170881	73700	2330
0	170887	73700	2320
0	170893	73700	2310
0	170899	73700	2300
0	170905	73700	2290
0	170911	73700	2280
0	170917	73700	2270
0	170923	73700	2260
0	170929	73700	2250
0	170935	73700	2240
0	170941	73700	2230
0	170947	73700	2220
0	170953	73700	2210
0	170959	73700	2200
0	170965	73700	2190
0	170971	73700	2180
0	170977	73700	2170
0	170983	73700	2160
0	170989	73700	2150
0	170995	73700	2140
0	171001	73700	2130
0	171007	73700	2120
0	171013	73700	2110
0	171019	73700	2100
0	171025	73700	2090
0	171031	73700	2080
0	171037	73700	2070
0	171043	73700	2060
0	171049	73700	2050
0	171055	73700	2040
0	171061	73700	2030
0	171067	73700	2020
0	171073	73700	2010
0	171079	73700	2000
0	171085	73700	1990
0	171091	73700	1980
0	171097	73700	1970
0	171103	73700	1960
0	171109	73700	1950
0	171115	73700	1940
0	171121	73700	1930
0	171127	73700	1920
0	171133	73700	1910
0	171139	73700	1900
0	171145	73700	1890
0	171151	73700	1880
0	171157	73700	1870
0	171163	73700	1860
0	171169	73700	1850
0	171175	73700	1840
0	171181	73700	1830
0	171187	73700	1820
0	171193	73700	1810
0	171199	73700	1800
0	171205	73700	1790
0	171211	73700	1780
0	171217	73700	1770
0	171223	73700	1760
0	171229	73700	1750
0	171235	73700	1740
0	171241	73700	1730
0	171247	73700	1720
0	171253	73700	1710
0	171259	73700	1700
0	171265	73700	1690
0	171271	73700	1680
0	171277	73700	1670
0	171283	73700	1660
0	171289	73700	1650
0	171295	73700	1640
0	171301	73700	1630
0	171307	73700	1620
0	171313	73700	1610
0	171319	73700	1600
0	171325	73700	1590
0	171331	73700	1580
0	171337	73700	1570
0	171343	73700	1560
0	171349	73700	1550
0	171355	73700	1540
0	171361	73700	1530
0	171367	73700	1520
0	171373	73700	1510
0	171379	73700	1500
0	171385	73700	1490
0	171391	73700	1480
0	171397	73700	1470
0	171403	73700	1460
0	171409	73700	1450
0	171415	73700	1440
0	171421	73700	1430
0	171427	73700	1420
0	171433	73700	1410
0	171439	73700	1400
0	171445	73700	1390
0	171451	73700	1380
0	171457	73700	1370
0	171463	73700	1360
0	171469	73700	1350
0	171475	73700	1340
0	171481	73700	1330
0	171487	73700	1320
0	171493	73700	1310
0	171499	73700	1300
0	171505	73700	1290
0	171511	73700	1280
0	171517	73700	1270
0	171523	73700	1260
0	171529	73700	1250
0	171535	73700	1240
0	171541	73700	1230
0	171547	73700	1220
0	171553	73700	1210
0	171559	73700	1200
0	171565	73700	1190
0	171593	73710	1190
0	186770	78201	1191
0	186819	78211	1191
0	186868	78221	1191
0	186917	78231	1191
0	186966	78241	1191
0	187015	78251	1191
0	187064	78261	1191
0	187113	78271	1191
0	187162	78281	1191
0	187211	78291	1191
0	187259	78301	1191
0	187307	78311	1191
0	187355	78321	1191
0	187403	78331	1191
0	187451	78341	1191
0	187499	78351	1191
0	187546	78361	1191
0	187593	78371	1191
0	187640	78381	1191
0	187687	78391	1191
0	187734	78401	1191
0	187781	78411	1191
0	187827	78421	1191
0	187873	78431	1191
0	187919	78441	1191
0	187965	78451	1191
0	193616	78461	1191
0	193679	78471	1191
0	193741	78481	1191
0	193803	78491	1191
0	193865	78501	1191
0	193927	78511	1191
0	193990	78521	1191
0	194051	78531	1191
0	194112	78541	1191
0	194173	78551	1191
0	194234	78561	1191
0	194295	78571	1191
0	194362	78581	1191
0	194425	78591	1191
0	194488	78601	1191
0	194551	78611	1191
0	194614	78621	1191
0	194677	78631	1191
0	194740	78641	1191
0	194803	78651	1191
0	194865	78661	1191
0	194927	78671	1191
0	194988	78681	1191
0	195049	78691	1191
0	195110	78701	1191
0	195170	78711	1191
0	195231	78721	1191
0	195292	78731	1191
0	195352	78741	1191
0	195412	78751	1191
0	195472	78761	1191
0	195516	78771	1191
0	195559	78781	1191
0	195602	78791	1191
0	195645	78801	1191
0	195688	78811	1191
0	195731	78821	1191
0	195773	78831	1191
0	195815	78841	1191
0	195857	78851	1191
0	195899	78861	1191
0	195941	78871	1191
0	195983	78881	1191
0	196025	78891	1191
0	196068	78901	1191
0	196110	78911	1191
0	196152	78921	1191
0	196194	78931	1191
0	196236	78941	1191
0	196278	78951	1191
0	196320	78961	1191
0	196362	78971	1191
0	197673	79616	1826
0	197679	79616	1816
0	197685	79616	1806
0	197691	79616	1796
0	197697	79616	1786
0	197703	79616	1776
0	197709	79616	1766
0	197715	79616	1756
0	197721	79616	1746
0	197727	79616	1736
0	197733	79616	1726
0	197739	79616	1716
0	197745	79616	1706
0	197751	79616	1696
0	197757	79616	1686
0	197763	79616	1676
0	197769	79616	1666
0	197775	79616	1656
0	197781	79616	1646
0	197787	79616	1636
0	197793	79616	1626
0	197799	79616	1616
0	197805	79616	1606
0	197811	79616	1596
0	197817	79616	1586
0	197823	79616	1576
0	197829	79616	1566
0	197835	79616	1556
0	197841	79616	1546
0	199154	79651	7121
0	199165	79651	7111
0	199180	79651	7101
0	199191	79651	7091
0	199206	79651	7081
0	199217	79651	7071
0	199232	79651	7061
0	199243	79651	7051
0	199258	79651	7041
0	199269	79651	7031
0	199284	79651	7021
0	199295	79651	7011
0	199310	79651	7001
0	199321	79651	6991
0	199336	79651	6981
0	199347	79651	6971
0	199362	79651	6961
0	199373	79651	6951
0	199388	79651	6941
0	199399	79651	6931
0	199414	79651	6921
0	199425	79651	6911
0	199440	79651	6901
0	199451	79651	6891
0	199466	79651	6881
0	199477	79651	6871
0	199492	79651	6861
0	199503	79651	6851
0	199518	79651	6841
0	199529	79651	6831
0	199544	79651	6821
0	199555	79651	6811
0	199570	79651	6801
0	199581	79651	6791
0	199596	79651	6781
0	199607	79651	6771
0	199622	79651	6761
0	199633	79651	6751
0	199648	79651	6741
0	199659	79651	6731
0	199674	79651	6721
0	199685	79651	6711
0	199700	79651	6701
0	199711	79651	6691
0	199726	79651	6681
0	199737	79651	6671
0	199752	79651	6661
0	199763	79651	6651
0	199778	79651	6641
0	199789	79651	6631
0	199804	79651	6621
0	199815	79651	6611
0	199830	79651	6601
0	199841	79651	6591
0	199856	79651	6581
0	199867	79651	6571
0	199882	79651	6561
0	199893	79651	6551
0	199908	79651	6541
0	199919	79651	6531
0	199934	79651	6521
0	199945	79651	6511
0	199960	79651	6501
0	199971	79651	6491
0	199986	79651	6481
0	199997	79651	6471
0	200012	79651	6461
0	200023	79651	6451
0	200038	79651	6441
0	200049	79651	6431
0	200064	79651	6421
0	200075	79651	6411
0	200090	79651	6401
0	200101	79651	6391
0	200116	79651	6381
0	200127	79651	6371
0	200142	79651	6361
0	200153	79651	6351
0	200168	79651	6341
0	200179	79651	6331
0	200194	79651	6321
0	200205	79651	6311
0	200220	79651	6301
0	200231	79651	6291
0	200246	79651	6281
0	200257	79651	6271
0	200272	79651	6261
0	200283	79651	6251
0	200298	79651	6241
0	200309	79651	6231
0	200324	79651	6221
0	200335	79651	6211
0	200350	79651	6201
0	200361	79651	6191
0	200376	79651	6181
0	200387	79651	6171
0	200402	79651	6161
0	200413	79651	6151
0	200428	79651	6141
0	200439	79651	6131
0	200454	79651	6121
0	200465	79651	6111
0	200480	79651	6101
0	200491	79651	6091
0	200506	79651	6081
0	200517	79651	6071
0	200532	79651	6061
0	200543	79651	6051
0	200558	79651	6041
0	200569	79651	6031
0	200584	79651	6021
0	200595	79651	6011
0	200610	79651	6001
0	200621	79651	5991
0	200636	79651	5981
0	200647	79651	5971
0	200662	79651	5961
0	200673	79651	5951
0	200688	79651	5941
0	200699	79651	5931
0	200714	79651	5921
0	200725	79651	5911
0	200740	79651	5901
0	200751	79651	5891
0	200766	79651	5881
0	200777	79651	5871
0	200792	79651	5861
0	200803	79651	5851
0	200818	79651	5841
0	200829	79651	5831
0	200844	79651	5821
0	200855	79651	5811
0	200870	79651	5801
0	200881	79651	5791
0	200896	79651	5781
0	200907	79651	5771
0	200922	79651	5761
0	200933	79651	5751
0	200948	79651	5741
0	200959	79651	5731
0	200974	79651	5721
0	200985	79651	5711
0	201000	79651	5701
0	201011	79651	5691
0	201026	79651	5681
0	201037	79651	5671
0	201052	79651	5661
0	201063	79651	5651
0	201078	79651	5641
0	201089	79651	5631
0	201104	79651	5621
0	201115	79651	5611
0	201130	79651	5601
0	201141	79651	5591
0	201156	79651	5581
0	201167	79651	5571
0	201182	79651	5561
0	201193	79651	5551
0	201208	79651	5541
0	201219	79651	5531
0	201234	79651	5521
0	201245	79651	5511
0	201260	79651	5501
0	201271	79651	5491
0	201286	79651	5481
0	201297	79651	5471
0	201312	79651	5461
0	201323	79651	5451
0	201338	79651	5441
0	201349	79651	5431
0	201364	79651	5421
0	201375	79651	5411
0	201390	79651	5401
0	201401	79651	5391
0	201416	79651	5381
0	201427	79651	5371
0	201442	79651	5361
0	201453	79651	5351
0	201468	79651	5341
0	201479	79651	5331
0	201494	79651	5321
0	201505	79651	5311
0	201520	79651	5301
0	201531	79651	5291
0	201546	79651	5281
0	201557	79651	5271
0	201572	79651	5261
0	201583	79651	5251
0	201598	79651	5241
0	201609	79651	5231
0	201624	79651	5221
0	201635	79651	5211
0	201650	79651	5201
0	201661	79651	5191
0	201676	79651	5181
0	201687	79651	5171
0	201702	79651	5161
0	201713	79651	5151
0	201728	79651	5141
0	201739	79651	5131
0	201754	79651	5121
0	201765	79651	5111
0	201780	79651	5101
0	201791	79651	5091
0	201806	79651	5081
0	201817	79651	5071
0	201832	79651	5061
0	201843	79651	5051
0	201858	79651	5041
0	201869	79651	5031
0	201884	79651	5021
0	201895	79651	5011
0	201910	79651	5001
0	201921	79651	4991
0	201936	79651	4981
0	201947	79651	4971
0	201962	79651	4961
0	201973	79651	4951
0	201988	79651	4941
0	201999	79651	4931
0	202014	79651	4921
0	202025	79651	4911
0	202040	79651	4901
0	202051	79651	4891
0	202066	79651	4881
0	202077	79651	4871
0	202092	79651	4861
0	202103	79651	4851
0	202118	79651	4841
0	202129	79651	4831
0	202144	79651	4821
0	202155	79651	4811
0	202170	79651	4801
0	202181	79651	4791
0	202196	79651	4781
0	202207	79651	4771
0	202222	79651	4761
0	202233	79651	4751
0	202248	79651	4741
0	202259	79651	4731
0	202274	79651	4721
0	202285	79651	4711
0	202300	79651	4701
0	202311	79651	4691
0	202326	79651	4681
0	202337	79651	4671
0	202352	79651	4661
0	202363	79651	4651
0	202378	79651	4641
0	202389	79651	4631
0	202404	79651	4621
0	202415	79651	4611
0	202430	79651	4601
0	202441	79651	4591
0	202456	79651	4581
0	202467	79651	4571
0	202482	79651	4561
0	202493	79651	4551
0	202508	79651	4541
0	202519	79651	4531
0	202534	79651	4521
0	202545	79651	4511
0	202560	79651	4501
0	202571	79651	4491
0	202586	79651	4481
0	202597	79651	4471
0	202612	79651	4461
0	202623	79651	4451
0	202638	79651	4441
0	202649	79651	4431
0	202664	79651	4421
0	202675	79651	4411
0	202690	79651	4401
0	202701	79651	4391
0	202716	79651	4381
0	202727	79651	4371
0	202742	79651	4361
0	202753	79651	4351
0	202768	79651	4341
0	202779	79651	4331
0	202794	79651	4321
0	202805	79651	4311
0	202820	79651	4301
0	202831	79651	4291
0	202846	79651	4281
0	202857	79651	4271
0	202872	79651	4261
0	202883	79651	4251
0	202898	79651	4241
0	202909	79651	4231
0	202924	79651	4221
0	202935	79651	4211
0	202950	79651	4201
0	202961	79651	4191
0	202976	79651	4181
0	202987	79651	4171
0	203002	79651	4161
0	203013	79651	4151
0	203028	79651	4141
0	203039	79651	4131
0	203054	79651	4121
0	203065	79651	4111
0	203080	79651	4101
0	203091	79651	4091
0	203106	79651	4081
0	203117	79651	4071
0	203132	79651	4061
0	203143	79651	4051
0	203158	79651	4041
0	203169	79651	4031
0	203184	79651	4021
0	203195	79651	4011
0	203210	79651	4001
0	203221	79651	3991
0	203236	79651	3981
0	203247	79651	3971
0	203262	79651	3961
0	203273	79651	3951
0	203288	79651	3941
0	203299	79651	3931
0	203314	79651	3921
0	203325	79651	3911
0	203340	79651	3901
0	203351	79651	3891
0	203366	79651	3881
0	203377	79651	3871
0	203392	79651	3861
0	203403	79651	3851
0	203418	79651	3841
0	203429	79651	3831
0	203444	79651	3821
0	203455	79651	3811
0	203470	79651	3801
0	203481	79651	3791
0	203496	79651	3781
0	203507	79651	3771
0	203522	79651	3761
0	203533	79651	3751
0	203548	79651	3741
0	203559	79651	3731
0	203574	79651	3721
0	203585	79651	3711
0	203600	79651	3701
0	203611	79651	3691
0	203626	79651	3681
0	203637	79651	3671
0	203652	79651	3661
0	203663	79651	3651
0	203678	79651	3641
0	203689	79651	3631
0	203704	79651	3621
0	203715	79651	3611
0	203730	79651	3601
0	203741	79651	3591
0	203756	79651	3581
0	203767	79651	3571
0	203782	79651	3561
0	203793	79651	3551
0	203808	79651	3541
0	203819	79651	3531
0	203834	79651	3521
0	203845	79651	3511
0	203860	79651	3501
0	203871	79651	3491
0	203886	79651	3481
0	203897	79651	3471
0	203912	79651	3461
0	203923	79651	3451
0	203938	79651	3441
0	203949	79651	3431
0	203964	79651	3421
0	203975	79651	3411
0	203990	79651	3401
0	204001	79651	3391
0	204016	79651	3381
0	204027	79651	3371
0	204042	79651	3361
0	204053	79651	3351
0	204068	79651	3341
0	204079	79651	3331
0	204094	79651	3321
0	204105	79651	3311
0	204120	79651	3301
0	204131	79651	3291
0	204146	79651	3281
0	204157	79651	3271
0	204172	79651	3261
0	204183	79651	3251
0	204198	79651	3241
0	204209	79651	3231
0	204224	79651	3221
0	204235	79651	3211
0	204250	79651	3201
0	204261	79651	3191
0	204276	79651	3181
0	204287	79651	3171
0	204302	79651	3161
0	204313	79651	3151
0	204328	79651	3141
0	204339	79651	3131
0	204354	79651	3121
0	204365	79651	3111
0	204380	79651	3101
0	204391	79651	3091
0	204406	79651	3081
0	204417	79651	3071
0	204432	79651	3061
0	204443	79651	3051
0	204458	79651	3041
0	204469	79651	3031
0	204484	79651	3021
0	204495	79651	3011
0	204510	79651	3001
0	204521	79651	2991
0	204536	79651	2981
0	204547	79651	2971
0	204562	79651	2961
0	204573	79651	2951
0	204588	79651	2941
0	204599	79651	2931
0	204614	79651	2921
0	204625	79651	2911
0	204640	79651	2901
0	204651	79651	2891
0	204666	79651	2881
0	204677	79651	2871
0	204692	79651	2861
0	204703	79651	2851
0	204718	79651	2841
0	204729	79651	2831
0	204744	79651	2821
0	204755	79651	2811
0	204770	79651	2801
0	204781	79651	2791
0	204796	79651	2781
0	204807	79651	2771
0	204822	79651	2761
0	204833	79651	2751
0	204848	79651	2741
0	204859	79651	2731
0	204874	79651	2721
0	204885	79651	2711
0	204900	79651	2701
0	204911	79651	2691
0	204926	79651	2681
0	204937	79651	2671
0	204952	79651	2661
0	204963	79651	2651
0	204978	79651	1571
0	204989	79651	1561
0	205004	79651	1551
0	205015	79651	1541
0	205030	79651	1531
0	205041	79651	1521
0	205056	79651	1511
0	205067	79651	1501
0	205082	79651	1491
0	205093	79651	1481
0	205108	79651	1471
0	205119	79651	1461
0	205134	79651	1451
0	205145	79651	1441
0	205160	79651	1431
0	205171	79651	1421
0	205186	79651	1411
0	205197	79651	1401
0	205212	79651	1391
0	205223	79651	1381
0	205238	79651	1371
0	205249	79651	1361
0	205264	79651	1351
0	205275	79651	1341
0	205290	79651	1331
0	205301	79651	1321
0	205316	79651	1311
0	205327	79651	1301
0	205342	79651	1291
0	205353	79651	1281
0	205368	79651	1271
0	205379	79651	1261
0	205394	79651	1251
0	205405	79651	1241
0	205420	79651	1231
0	205431	79651	1221
0	205446	79651	1211
0	205457	79651	1201
0	205468	79651	1191
0	205502	79661	1191
0	205535	79671	1191
0	205568	79681	1191
0	205601	79691	1191
0	205634	79701	1191
0	205667	79711	1191
0	205700	79721	1191
0	205733	79731	1191
0	205766	79741	1191
0	205799	79751	1191
0	205832	79761	1191
0	205865	79771	1191
0	205898	79781	1191
0	205931	79791	1191
0	205964	79801	1191
0	205997	79811	1191
0	206030	79821	1191
0	206063	79831	1191
0	206096	79841	1191
0	206129	79851	1191
0	206162	79861	1191
0	206195	79871	1191
0	206229	79881	1191
0	206262	79891	1191
0	206295	79901	1191
0	206328	79911	1191
0	206361	79921	1191
0	206394	79931	1191
0	206427	79941	1191
0	206460	79951	1191
0	206710	80832	2062
0	206721	80832	2052
0	206735	80832	2042
0	206746	80832	2032
0	206760	80832	2022
0	206771	80832	2012
0	206785	80832	2002
0	206796	80832	1992
0	206810	80832	1982
0	206821	80832	1972
0	206835	80832	1962
0	206846	80832	1952
0	206860	80832	1942
0	206871	80832	1932
0	206885	80832	1922
0	206896	80832	1912
0	206910	80832	1902
0	206921	80832	1892
0	206935	80832	1882
0	206946	80832	1872
0	206960	80832	1862
0	206971	80832	1852
0	206985	80832	1842
0	206996	80832	1832
0	207010	80832	1822
0	207021	80832	1812
0	207035	80832	1802
0	207046	80832	1792
0	207060	80832	1782
0	207071	80832	1772
0	207085	80832	1762
0	207096	80832	1752
0	207110	80832	1742
0	207121	80832	1732
0	207135	80832	1722
0	207146	80832	1712
0	207160	80832	1702
0	207171	80832	1692
0	207185	80832	1682
0	207196	80832	1672
0	207210	80832	1662
0	207221	80832	1652
0	207235	80832	1642
0	207246	80832	1632
0	207260	80832	1622
0	207271	80832	1612
0	207285	80832	1602
0	207296	80832	1592
0	207310	80832	1582
0	207321	80832	1572
0	207335	80832	1562
0	207346	80832	1552
0	207360	80832	1542
0	207371	80832	1532
0	207385	80832	1522
0	207396	80832	1512
0	207410	80832	1502
0	207421	80832	1492
0	207435	80832	1482
0	207446	80832	1472
0	207460	80832	1462
0	207471	80832	1452
0	207485	80832	1442
0	207496	80832	1432
0	207510	80832	1422
0	207521	80832	1412
0	207535	80832	1402
0	207546	80832	1392
0	207560	80832	1382
0	207571	80832	1372
0	207585	80832	1362
0	207596	80832	1352
0	207610	80832	1342
0	207621	80832	1332
0	207635	80832	1322
0	207646	80832	1312
0	207660	80832	1302
0	207671	80832	1292
0	207685	80832	1282
0	207696	80832	1272
0	207710	80832	1262
0	207721	80832	1252
0	207735	80832	1242
0	207746	80832	1232
0	207760	80832	1222
0	207771	80832	1212
0	207785	80832	1202
0	207792	80832	1192
0	207812	80842	1192

