version 2
run General-0-20250114-20:17:49-99743
attr configname General
attr datetime 20250114-20:17:49
attr experiment General
attr inifile shaw.ini
attr iterationvars ""
attr iterationvarsf ""
attr measurement ""
attr network src.dtnsim
attr processid 99743
attr repetition 0
attr replication #0
attr resultdir results
attr runnumber 0
attr seedset 0
param dtnsim.central.contactsFile "\"contactPlan/Contacts.txt\""
param dtnsim.central.contactsFile_A "\"contactPlan/Contacts_A.txt\""
param dtnsim.central.contactsFile_B "\"contactPlan/Contacts_B.txt\""
param dtnsim.central.contactIdsToDelete_from_celestialA "\"12 25 26 40 55 58 59 67 116 129 131 135 168 179 189 220 242 281 283 288 329 338 343 372 385 394 400 416 427 446 461 468 481 516 518 521 542 553 554 555\""
param dtnsim.central.contactIdsToDelete_from_celestialB "\"19 28 33 46 69 79 88 99 107 111 124 140 142 147 150 157 169 171 180 181 190 233 240 246 253 287 299 300 314 318 320 327 328 336 356 358 360 368 376 407 434 435 452 459 460 463 465 484 492 501 544 547 549 563 569 580 585 592 593 597\""
param dtnsim.central.celestialA_nodes "\"1 2 3\""
param dtnsim.central.celestialB_nodes "\"4 5 6\""
param dtnsim.central.locallyfaultsAware true
param dtnsim.central.mode_two_celestial true
param dtnsim.nodesNumber 6
param dtnsim.node[1].icon "\"receiverdish\""
param dtnsim.node[2..5].icon "\"satellite\""
param dtnsim.node[6].icon "\"receiverdish\""
param dtnsim.node[*].dtn.routing "\"cgrModel350\""
param dtnsim.node[*].dtn.routingType "\"routeListType:allPaths-firstEnding,volumeAware:allContacts,extensionBlock:on,contactPlan:global\""
param dtnsim.node[1].app.enable true
param dtnsim.node[*].app.custodyTransfer true
param dtnsim.node[1].app.bundlesNumber "\"1800\""
param dtnsim.node[1].app.start "\"0\""
param dtnsim.node[1].app.destinationEid "\"6\""
param dtnsim.node[1].app.size "\"1500\""
param dtnsim.node[1].app.interval 1

vector 0 dtnsim.node[6].app appBundleReceivedDelayvec:vector ETV
attr interpolationmode none
attr source appBundleReceivedDelay
attr title "appBundleReceivedDelayvec, vector"
0	576	27.4	27.4
0	577	27.4	26.4
0	578	27.4	25.4
0	579	27.4	24.4
0	580	27.4	23.4
0	581	27.4	22.4
0	582	27.4	21.4
0	583	27.4	20.4
0	584	27.4	19.4
0	585	27.4	18.4
0	586	27.4	17.4
0	587	27.4	16.4
0	588	27.4	15.4
0	589	27.4	14.4
0	590	27.4	13.4
0	591	27.4	12.4
0	592	27.4	11.4
0	593	27.4	10.4
0	594	27.4	9.4
0	595	27.4	8.4
0	596	27.4	7.4
0	597	27.4	6.4
0	598	27.4	5.4
0	599	27.4	4.4
0	600	27.4	3.4
0	601	27.4	2.4
0	743	27.5	1.5
0	775	28.5	1.5
0	861	29.5	1.5
0	895	30.5	1.5
0	929	31.5	1.5
0	963	32.5	1.5
0	997	33.5	1.5
0	1031	34.5	1.5
0	1065	35.5	1.5
0	1102	36.5	1.5
0	1137	37.5	1.5
0	1172	38.5	1.5
0	1207	39.5	1.5
0	1242	40.5	1.5
0	1281	41.5	1.5
0	1316	42.5	1.5
0	1351	43.5	1.5
0	1853	44.5	1.5
0	1906	45.5	1.5
0	1959	46.5	1.5
0	2012	47.5	1.5
0	2065	48.5	1.5
0	2118	49.5	1.5
0	2171	50.5	1.5
0	2224	51.5	1.5
0	2277	52.5	1.5
0	2330	53.5	1.5
0	2386	54.5	1.5
0	2440	55.5	1.5
0	2494	56.5	1.5
0	2548	57.5	1.5
0	2602	58.5	1.5
0	2656	59.5	1.5
0	2710	60.5	1.5
0	2764	61.5	1.5
0	2817	62.5	1.5
0	2873	63.5	1.5
0	2927	64.5	1.5
0	2984	65.5	1.5
0	3039	66.5	1.5
0	3094	67.5	1.5
0	3149	68.5	1.5
0	3204	69.5	1.5
0	3259	70.5	1.5
0	3314	71.5	1.5
0	3369	72.5	1.5
0	3427	73.5	1.5
0	3485	74.5	1.5
0	3542	75.5	1.5
0	3599	76.5	1.5
0	3656	77.5	1.5
0	3713	78.5	1.5
0	3759	79.5	1.5
0	3814	80.2	1.2
0	3854	81.2	1.2
0	3904	82.2	1.2
0	3952	83.2	1.2
0	4001	84.2	1.2
0	4048	85.2	1.2
0	4095	86.2	1.2
0	4141	87.2	1.2
0	4187	88.2	1.2
0	4233	89.2	1.2
0	4278	90.2	1.2
0	4324	91.2	1.2
0	4366	92.2	1.2
0	4451	94.2	2.2
0	4452	94.2	1.2
0	4485	95.2	1.2
0	4534	96.2	1.2
0	4576	97.2	1.2
0	4618	98.2	1.2
0	4660	99.2	1.2
0	4702	100.2	1.2
0	4744	101.2	1.2
0	4786	102.2	1.2
0	4828	103.2	1.2
0	4870	104.2	1.2
0	4915	105.2	1.2
0	4956	106.2	1.2
0	4995	107.2	1.2
0	5030	108.2	1.2
0	5065	109.2	1.2
0	5100	110.2	1.2
0	5136	111.2	1.2
0	5172	112.2	1.2
0	5471	113.2	1.2
0	6552	115.6	2.6
0	6553	115.6	1.6
0	6608	116.6	1.6
0	6671	117.6	1.6
0	6728	118.6	1.6
0	6979	119.6	1.6
0	7032	120.6	1.6
0	7083	121.6	1.6
0	7134	122.6	1.6
0	7230	123.6	1.6
0	7312	125.4	1.4
0	7416	126.4	1.4
0	7467	126.9	3.9
0	7542	127.4	1.4
0	7630	128.4	1.4
0	7699	129.4	1.4
0	7768	130.4	1.4
0	7836	131.4	1.4
0	7904	132.4	1.4
0	7972	133.4	1.4
0	8042	134.4	1.4
0	8110	135.4	1.4
0	8178	136.4	1.4
0	8246	137.4	1.4
0	8314	138.4	1.4
0	8385	139.4	1.4
0	8454	140.4	1.4
0	8523	141.4	1.4
0	8592	142.4	1.4
0	8664	143.4	1.4
0	8746	144.4	1.4
0	8824	145.4	1.4
0	8964	147.5	2.5
0	8965	147.5	1.5
0	9047	148.5	1.5
0	9116	149.5	1.5
0	9186	150.5	1.5
0	9262	151.5	1.5
0	9321	152.5	1.5
0	9394	153.5	1.5
0	9450	154.5	1.5
0	9559	156.5	2.5
0	9560	156.5	1.5
0	9637	157.5	1.5
0	9700	158.5	1.5
0	9763	159.5	1.5
0	9830	160.5	1.5
0	9898	161.5	1.5
0	9971	162.5	1.5
0	10035	163.5	1.5
0	10106	164.5	1.5
0	10183	165.5	1.5
0	10246	166.5	1.5
0	10305	167.5	1.5
0	10351	168.5	1.5
0	10395	169.5	1.5
0	10444	170.5	1.5
0	10490	171.5	1.5
0	10539	172.5	1.5
0	10586	173.5	1.5
0	10636	174.5	1.5
0	10684	175.5	1.5
0	10732	176.5	1.5
0	10779	177.5	1.5
0	10826	178.5	1.5
0	10873	179.5	1.5
0	10971	180.5	1.5
0	11168	181.5	1.5
0	11302	182.5	1.5
0	11971	184.5	2.5
0	11972	184.5	1.5
0	12154	185.5	1.5
0	12397	186.5	1.5
0	12596	187.5	1.5
0	12807	188.5	1.5
0	12990	189.5	1.5
0	13197	190.5	1.5
0	14752	203.1	12.1
0	14753	203.1	11.1
0	14754	203.1	13.1
0	14755	203.1	10.1
0	14756	203.1	9.1
0	14757	203.1	8.1
0	14758	203.1	7.1
0	14759	203.1	6.1
0	14760	203.1	5.1
0	14761	203.1	4.1
0	14762	203.1	3.1
0	14763	203.1	2.1
0	14891	203.4	1.4
0	14948	204.4	1.4
0	15082	205.4	1.4
0	15175	206.4	1.4
0	15246	207.4	1.4
0	15316	208.4	1.4
0	15386	209.4	1.4
0	15456	210.4	1.4
0	15528	211.4	1.4
0	15601	212.4	1.4
0	15670	213.4	1.4
0	15742	214.4	1.4
0	15821	215.4	1.4
0	15896	216.4	1.4
0	15971	217.4	1.4
0	16046	218.4	1.4
0	16119	219.4	1.4
0	16193	220.4	1.4
0	16267	221.4	1.4
0	16344	222.4	1.4
0	16418	223.4	1.4
0	16479	224.4	1.4
0	16545	225.4	1.4
0	16621	226.4	1.4
0	16697	227.4	1.4
0	16771	228.4	1.4
0	16844	229.4	1.4
0	16917	230.4	1.4
0	16990	231.4	1.4
0	17063	232.4	1.4
0	17127	233.4	1.4
0	17191	234.4	1.4
0	17230	235.4	1.4
0	17639	247.5	12.5
0	17640	247.5	11.5
0	17641	247.5	10.5
0	17642	247.5	9.5
0	17643	247.5	8.5
0	17644	247.5	7.5
0	17645	247.5	6.5
0	17646	247.5	5.5
0	17647	247.5	4.5
0	17648	247.5	3.5
0	17649	247.5	2.5
0	17650	247.5	1.5
0	17840	248.5	1.5
0	17898	249.5	1.5
0	17956	250.5	1.5
0	18014	251.5	1.5
0	18072	252.5	1.5
0	18130	253.5	1.5
0	18186	254.5	1.5
0	18243	255.5	1.5
0	18303	256.5	1.5
0	18364	257.5	1.5
0	18421	258.5	1.5
0	18478	259.5	1.5
0	18535	260.5	1.5
0	18595	261.5	1.5
0	18656	262.5	1.5
0	18715	263.5	1.5
0	18778	264.5	1.5
0	18838	265.5	1.5
0	18898	266.5	1.5
0	18958	267.5	1.5
0	19018	268.5	1.5
0	19081	269.5	1.5
0	19142	270.5	1.5
0	19202	271.5	1.5
0	19265	272.5	1.5
0	19331	273.5	1.5
0	19394	274.5	1.5
0	19457	275.5	1.5
0	19520	276.5	1.5
0	19583	277.5	1.5
0	19663	278.5	1.5
0	19726	279.3	1.3
0	19806	280.3	1.3
0	19872	281.3	1.3
0	19937	282.3	1.3
0	20003	283.3	1.3
0	20069	284.3	1.3
0	20137	285.3	1.3
0	20201	286.3	1.3
0	20265	287.3	1.3
0	20329	288.3	1.3
0	20396	289.3	1.3
0	20464	290.3	1.3
0	20530	291.3	1.3
0	20592	292.3	1.3
0	20660	293.3	1.3
0	20725	294.3	1.3
0	20788	295.3	1.3
0	20851	296.3	1.3
0	20918	297.3	1.3
0	20981	298.3	1.3
0	21041	299.3	1.3
0	21267	330.1	31.1
0	23880	362.3	62.3
0	23881	362.3	61.3
0	23882	362.3	60.3
0	23883	362.3	59.3
0	23884	362.3	58.3
0	23885	362.3	57.3
0	23886	362.3	56.3
0	23887	362.3	55.3
0	23888	362.3	54.3
0	23889	362.3	53.3
0	23890	362.3	52.3
0	23891	362.3	51.3
0	23892	362.3	50.3
0	23893	362.3	49.3
0	23894	362.3	48.3
0	23895	362.3	47.3
0	23896	362.3	46.3
0	23897	362.3	45.3
0	23898	362.3	44.3
0	23899	362.3	43.3
0	23900	362.3	42.3
0	23901	362.3	41.3
0	23902	362.3	40.3
0	23903	362.3	39.3
0	23904	362.3	38.3
0	23905	362.3	37.3
0	23906	362.3	36.3
0	23907	362.3	35.3
0	23908	362.3	34.3
0	23909	362.3	33.3
0	23910	362.3	32.3
0	23911	362.3	31.3
0	23912	362.3	30.3
0	23913	362.3	29.3
0	23914	362.3	28.3
0	23915	362.3	27.3
0	23916	362.3	26.3
0	23917	362.3	25.3
0	23918	362.3	24.3
0	23919	362.3	23.3
0	23920	362.3	22.3
0	23921	362.3	21.3
0	23922	362.3	20.3
0	23923	362.3	19.3
0	23924	362.3	18.3
0	23925	362.3	17.3
0	23926	362.3	16.3
0	23927	362.3	15.3
0	23928	362.3	14.3
0	23929	362.3	13.3
0	23930	362.3	12.3
0	23931	362.3	11.3
0	23932	362.3	10.3
0	23933	362.3	9.3
0	23934	362.3	8.3
0	23935	362.3	7.3
0	23936	362.3	6.3
0	23937	362.3	5.3
0	23938	362.3	4.3
0	23939	362.3	3.3
0	23940	362.3	2.3
0	23941	362.3	1.3
0	24432	363.3	1.3
0	24498	364.3	1.3
0	24566	365.3	1.3
0	24632	366.3	1.3
0	24698	367.3	1.3
0	24764	368.3	1.3
0	24830	369.3	1.3
0	24896	370.3	1.3
0	24962	371.3	1.3
0	25032	372.3	1.3
0	25099	373.3	1.3
0	25166	374.3	1.3
0	25233	375.3	1.3
0	25299	376.3	1.3
0	25365	377.3	1.3
0	25434	378.3	1.3
0	25504	379.3	1.3
0	25563	380.3	1.3
0	25611	381.2	1.2
0	25656	382.2	1.2
0	25743	384.2	2.2
0	25744	384.2	1.2
0	25798	385.2	1.2
0	25845	386.2	1.2
0	26100	391.2	5.2
0	26101	391.2	4.2
0	26102	391.2	3.2
0	26103	391.2	2.2
0	26140	391.3	1.3
0	26235	392.3	1.3
0	26306	393.3	1.3
0	26379	394.3	1.3
0	26452	395.3	1.3
0	26528	396.3	1.3
0	26600	397.3	1.3
0	26672	398.3	1.3
0	26743	399.3	1.3
0	26811	400.3	1.3
0	26882	401.3	1.3
0	26954	402.3	1.3
0	27025	403.3	1.3
0	27096	404.3	1.3
0	27167	405.3	1.3
0	27238	406.3	1.3
0	27309	407.3	1.3
0	27380	408.3	1.3
0	27451	409.3	1.3
0	27519	410.3	1.3
0	27577	411.2	1.2
0	27634	412.2	1.2
0	27692	413.2	1.2
0	27751	414.2	1.2
0	27808	415.2	1.2
0	27865	416.2	1.2
0	27920	417.2	1.2
0	27979	418.2	1.2
0	28038	419.2	1.2
0	28101	420.2	1.2
0	28222	422.4	2.4
0	28223	422.4	1.4
0	28288	423.4	1.4
0	28365	424.4	1.4
0	28453	425.5	1.5
0	28506	426.5	1.5
0	28555	427.5	1.5
0	28598	428.5	1.5
0	28645	429.5	1.5
0	28689	430.5	1.5
0	28732	431.5	1.5
0	28772	432.5	1.5
0	28832	433.5	1.5
0	28905	434.5	1.5
0	28985	435.5	1.5
0	29065	436.5	1.5
0	29145	437.5	1.5
0	29228	438.5	1.5
0	29313	439.5	1.5
0	29396	440.5	1.5
0	29485	441.5	1.5
0	29551	442.2	1.2
0	29619	443.2	1.2
0	29697	444.2	1.2
0	29775	445.2	1.2
0	29853	446.2	1.2
0	29934	447.2	1.2
0	30024	448.2	1.2
0	30096	449.2	1.2
0	30157	450.2	1.2
0	30219	451.2	1.2
0	30280	452.2	1.2
0	30406	454.4	1.4
0	30495	455.4	1.4
0	30522	455.8	3.8
0	30575	456.4	1.4
0	30632	457.4	1.4
0	30687	458.4	1.4
0	30742	459.4	1.4
0	30797	460.4	1.4
0	31034	461.4	1.4
0	31174	463.4	1.4
0	31221	464.4	1.4
0	31295	465.4	1.4
0	31325	465.9	4.9
0	31376	466.4	1.4
0	31443	467.4	1.4
0	31503	468.4	1.4
0	31558	469.4	1.4
0	31619	470.4	1.4
0	31671	471.4	1.4
0	31737	472.4	1.4
0	31801	473.4	1.4
0	31862	474.4	1.4
0	31922	475.4	1.4
0	31982	476.4	1.4
0	32042	477.4	1.4
0	32102	478.4	1.4
0	32162	479.4	1.4
0	32221	480.4	1.4
0	32280	481.4	1.4
0	32338	482.4	1.4
0	32397	483.4	1.4
0	32460	484.4	1.4
0	32520	485.4	1.4
0	32580	486.4	1.4
0	32641	487.4	1.4
0	32703	488.4	1.4
0	32763	489.4	1.4
0	32823	490.4	1.4
0	32890	491.4	1.4
0	32949	492.4	1.4
0	33008	493.4	1.4
0	33076	494.4	1.4
0	33148	495.4	1.4
0	33205	496.4	1.4
0	33262	497.4	1.4
0	33319	498.4	1.4
0	33541	503.1	4.1
0	33542	503.1	3.1
0	33543	503.1	5.1
0	33544	503.1	2.1
0	33597	503.2	1.2
0	33648	504.2	1.2
0	33701	505.2	1.2
0	33748	506.2	1.2
0	33839	508.2	2.2
0	33840	508.2	1.2
0	33895	509.2	1.2
0	33943	510.2	1.2
0	33990	511.2	1.2
0	34037	512.2	1.2
0	34085	513.2	1.2
0	34132	514.2	1.2
0	34179	515.2	1.2
0	34226	516.2	1.2
0	34274	517.2	1.2
0	34321	518.2	1.2
0	34368	519.2	1.2
0	34414	520.2	1.2
0	34467	521.2	1.2
0	34523	522.2	1.2
0	34589	523.2	1.2
0	34659	524.2	1.2
0	34732	525.2	1.2
0	34804	526.2	1.2
0	34877	527.2	1.2
0	34948	528.2	1.2
0	35016	529.2	1.2
0	35092	530.2	1.2
0	35162	531.2	1.2
0	35247	532.2	1.2
0	35326	533.2	1.2
0	35398	534.2	1.2
0	35468	535.2	1.2
0	35546	536.2	1.2
0	35624	537.2	1.2
0	35707	538.2	1.2
0	35760	539.2	1.2
0	35803	540.2	1.2
0	35846	541.2	1.2
0	35891	542.2	1.2
0	35933	543.2	1.2
0	35976	544.2	1.2
0	36021	545.2	1.2
0	36064	546.2	1.2
0	36107	547.2	1.2
0	36150	548.2	1.2
0	36195	549.2	1.2
0	36239	550.2	1.2
0	36286	551.2	1.2
0	36331	552.2	1.2
0	36376	553.2	1.2
0	36420	554.2	1.2
0	36469	555.2	1.2
0	36518	556.2	1.2
0	36580	557.3	1.3
0	36629	558.3	1.3
0	36678	559.3	1.3
0	36727	560.3	1.3
0	36775	561.3	1.3
0	36901	562.3	1.3
0	37002	563.3	1.3
0	37192	564.3	1.3
0	37254	565.3	1.3
0	37311	566.3	1.3
0	37371	567.3	1.3
0	37431	568.3	1.3
0	37493	569.3	1.3
0	37555	570.3	1.3
0	37617	571.3	1.3
0	37679	572.3	1.3
0	37743	573.4	1.4
0	38154	574.4	1.4
0	38218	575.4	1.4
0	38267	576.4	1.4
0	38316	577.4	1.4
0	38367	578.4	1.4
0	38417	579.4	1.4
0	38467	580.4	1.4
0	38517	581.4	1.4
0	38567	582.4	1.4
0	38616	583.4	1.4
0	38665	584.4	1.4
0	38701	585.4	1.4
0	41061	650.1	65.1
0	41062	650.1	64.1
0	41063	650.1	63.1
0	41064	650.1	62.1
0	41065	650.1	61.1
0	41066	650.1	60.1
0	41067	650.1	59.1
0	41068	650.1	58.1
0	41069	650.1	57.1
0	41070	650.1	56.1
0	41071	650.1	55.1
0	41072	650.1	54.1
0	41073	650.1	53.1
0	41074	650.1	52.1
0	41075	650.1	51.1
0	41076	650.1	50.1
0	41077	650.1	49.1
0	41078	650.1	48.1
0	41079	650.1	47.1
0	41080	650.1	46.1
0	41081	650.1	45.1
0	41082	650.1	44.1
0	41083	650.1	43.1
0	41084	650.1	42.1
0	41085	650.1	41.1
0	41086	650.1	40.1
0	41087	650.1	39.1
0	41088	650.1	38.1
0	41089	650.1	37.1
0	41090	650.1	36.1
0	41091	650.1	35.1
0	41092	650.1	34.1
0	41093	650.1	33.1
0	41094	650.1	32.1
0	41095	650.1	31.1
0	41096	650.1	30.1
0	41097	650.1	29.1
0	41098	650.1	28.1
0	41099	650.1	27.1
0	41100	650.1	26.1
0	41101	650.1	25.1
0	41102	650.1	24.1
0	41103	650.1	23.1
0	41104	650.1	22.1
0	41105	650.1	21.1
0	41106	650.1	20.1
0	41107	650.1	19.1
0	41108	650.1	18.1
0	41109	650.1	17.1
0	41110	650.1	16.1
0	41111	650.1	15.1
0	41112	650.1	14.1
0	41113	650.1	13.1
0	41114	650.1	12.1
0	41115	650.1	11.1
0	41116	650.1	10.1
0	41117	650.1	9.1
0	41118	650.1	8.1
0	41119	650.1	7.1
0	41120	650.1	6.1
0	41121	650.1	5.1
0	41122	650.1	4.1
0	41123	650.1	3.1
0	41124	650.1	2.1
0	41797	650.4	1.4
0	41857	651.4	1.4
0	41915	652.4	1.4
0	41976	653.4	1.4
0	42037	654.4	1.4
0	42097	655.4	1.4
0	42158	656.4	1.4
0	42219	657.4	1.4
0	42280	658.4	1.4
0	42346	659.4	1.4
0	42412	660.4	1.4
0	42473	661.4	1.4
0	42537	662.2	1.2
0	42587	663.2	1.2
0	42654	664.2	1.2
0	42719	665.2	1.2
0	42784	666.2	1.2
0	42849	667.2	1.2
0	42914	668.2	1.2
0	42979	669.2	1.2
0	43044	670.2	1.2
0	43109	671.2	1.2
0	43174	672.2	1.2
0	43238	673.2	1.2
0	43302	674.2	1.2
0	43367	675.2	1.2
0	43430	676.2	1.2
0	43493	677.2	1.2
0	43553	678.2	1.2
0	43618	679.2	1.2
0	43663	680.2	1.2
0	43729	681.2	1.2
0	43876	684.4	2.4
0	43877	684.4	1.4
0	43945	685.4	4.4
0	43946	685.4	1.4
0	44008	686.4	1.4
0	44075	687.4	1.4
0	44139	688.4	1.4
0	44200	689.4	1.4
0	44260	690.4	1.4
0	44318	691.4	1.4
0	44379	692.4	1.4
0	44438	693.4	1.4
0	44497	694.4	1.4
0	44558	695.4	1.4
0	44618	696.4	1.4
0	44681	697.4	1.4
0	44742	698.4	1.4
0	44802	699.4	1.4
0	44862	700.4	1.4
0	44923	701.4	1.4
0	44979	702.4	1.4
0	45080	704.4	2.4
0	45081	704.4	1.4
0	45138	705.4	1.4
0	45187	706.4	1.4
0	46989	743.3	37.3
0	46990	743.3	36.3
0	46991	743.3	35.3
0	46992	743.3	34.3
0	46993	743.3	33.3
0	46994	743.3	32.3
0	46995	743.3	31.3
0	46996	743.3	30.3
0	46997	743.3	29.3
0	46998	743.3	28.3
0	46999	743.3	27.3
0	47000	743.3	26.3
0	47001	743.3	25.3
0	47002	743.3	24.3
0	47003	743.3	23.3
0	47004	743.3	22.3
0	47005	743.3	21.3
0	47006	743.3	20.3
0	47007	743.3	19.3
0	47008	743.3	18.3
0	47009	743.3	17.3
0	47010	743.3	16.3
0	47011	743.3	15.3
0	47012	743.3	14.3
0	47013	743.3	13.3
0	47014	743.3	12.3
0	47015	743.3	11.3
0	47016	743.3	10.3
0	47017	743.3	9.3
0	47018	743.3	8.3
0	47019	743.3	7.3
0	47020	743.3	6.3
0	47021	743.3	5.3
0	47022	743.3	4.3
0	47023	743.3	3.3
0	47024	743.3	2.3
0	47025	743.3	1.3
0	47526	744.3	1.3
0	47857	745.3	1.3
0	47936	746.3	1.3
0	48015	747.3	1.3
0	48093	748.3	1.3
0	48171	749.3	1.3
0	48314	750.3	1.3
0	48393	751.3	1.3
0	48472	752.3	1.3
0	48551	753.3	1.3
0	48630	754.3	1.3
0	48706	755.3	1.3
0	48786	756.3	1.3
0	48869	757.3	1.3
0	48952	758.3	1.3
0	49033	759.3	1.3
0	49117	760.3	1.3
0	49199	761.3	1.3
0	49284	762.3	1.3
0	49369	763.3	1.3
0	49455	764.3	1.3
0	49540	765.3	1.3
0	49633	766.3	1.3
0	49724	767.3	1.3
0	49806	768.3	1.3
0	49886	769.3	1.3
0	49968	770.3	1.3
0	50031	771.3	1.3
0	50141	773.3	2.3
0	50142	773.3	1.3
0	50221	774.3	1.3
0	50286	775.3	1.3
0	50352	776.3	1.3
0	50417	777.3	1.3
0	50482	778.3	1.3
0	50547	779.3	1.3
0	50613	780.3	1.3
0	50685	781.3	1.3
0	53474	835.1	54.1
0	53475	835.1	53.1
0	53476	835.1	52.1
0	53477	835.1	51.1
0	53478	835.1	50.1
0	53479	835.1	49.1
0	53480	835.1	48.1
0	53481	835.1	47.1
0	53482	835.1	46.1
0	53483	835.1	45.1
0	53484	835.1	44.1
0	53485	835.1	43.1
0	53486	835.1	42.1
0	53487	835.1	41.1
0	53488	835.1	40.1
0	53489	835.1	39.1
0	53490	835.1	38.1
0	53491	835.1	37.1
0	53492	835.1	36.1
0	53493	835.1	35.1
0	53494	835.1	34.1
0	53495	835.1	33.1
0	53496	835.1	32.1
0	53497	835.1	31.1
0	53498	835.1	29.1
0	53499	835.1	30.1
0	53500	835.1	28.1
0	53501	835.1	27.1
0	53502	835.1	26.1
0	53503	835.1	25.1
0	53504	835.1	24.1
0	53505	835.1	23.1
0	53506	835.1	22.1
0	53507	835.1	21.1
0	53508	835.1	20.1
0	53509	835.1	19.1
0	53510	835.1	18.1
0	53511	835.1	17.1
0	53512	835.1	16.1
0	53513	835.1	15.1
0	53514	835.1	14.1
0	53515	835.1	13.1
0	53516	835.1	12.1
0	53517	835.1	11.1
0	53518	835.1	10.1
0	53519	835.1	9.1
0	53520	835.1	8.1
0	53521	835.1	7.1
0	53522	835.1	6.1
0	53523	835.1	5.1
0	54453	844.4	13.4
0	54454	844.4	12.4
0	54455	844.4	11.4
0	54456	844.4	10.4
0	54457	844.4	9.4
0	54458	844.4	8.4
0	54459	844.4	7.4
0	54460	844.4	6.4
0	54461	844.4	5.4
0	54462	844.4	4.4
0	54463	844.4	3.4
0	54464	844.4	2.4
0	54543	844.5	1.5
0	54631	845.5	1.5
0	54691	846.5	1.5
0	54752	847.5	1.5
0	54820	848.5	1.5
0	54879	849.5	1.5
0	54936	850.5	1.5
0	54995	851.5	1.5
0	55053	852.5	1.5
0	55109	853.5	1.5
0	55165	854.5	1.5
0	55221	855.5	1.5
0	55280	856.5	1.5
0	55337	857.5	1.5
0	55394	858.5	1.5
0	55435	859.5	1.5
0	55587	862.5	3.5
0	55588	862.5	2.5
0	55589	862.5	1.5
0	55643	863.5	1.5
0	55695	864.5	1.5
0	55745	865.5	1.5
0	55795	866.5	1.5
0	55845	867.5	1.5
0	55983	868.5	1.5
0	56051	869.5	1.5
0	56118	870.5	1.5
0	56184	871.5	1.5
0	56250	872.5	1.5
0	56319	873.5	1.5
0	56386	874.5	1.5
0	56459	875.5	1.5
0	56528	876.5	1.5
0	56597	877.5	1.5
0	56666	878.5	1.5
0	56735	879.5	1.5
0	56807	880.5	1.5
0	56862	881.4	1.4
0	56906	882.4	1.4
0	56950	883.4	1.4
0	56994	884.4	1.4
0	57040	885.4	1.4
0	57086	886.4	1.4
0	57128	887.4	1.4
0	58382	925.3	38.3
0	58383	925.3	37.3
0	58384	925.3	36.3
0	58385	925.3	35.3
0	58386	925.3	34.3
0	58387	925.3	33.3
0	58388	925.3	32.3
0	58389	925.3	31.3
0	58390	925.3	30.3
0	58391	925.3	29.3
0	58392	925.3	28.3
0	58393	925.3	27.3
0	58394	925.3	26.3
0	58395	925.3	25.3
0	58396	925.3	24.3
0	58397	925.3	23.3
0	58398	925.3	22.3
0	58399	925.3	21.3
0	58400	925.3	20.3
0	58401	925.3	19.3
0	58402	925.3	18.3
0	58403	925.3	17.3
0	58404	925.3	16.3
0	58405	925.3	15.3
0	58406	925.3	14.3
0	58407	925.3	13.3
0	58408	925.3	12.3
0	58409	925.3	11.3
0	58410	925.3	10.3
0	58411	925.3	9.3
0	58412	925.3	8.3
0	58413	925.3	7.3
0	58414	925.3	6.3
0	58415	925.3	5.3
0	58416	925.3	4.3
0	58417	925.3	3.3
0	58418	925.3	2.3
0	58731	925.4	1.4
0	58973	926.4	1.4
0	59106	927.4	1.4
0	59163	928.4	1.4
0	59228	929.4	1.4
0	59297	930.4	1.4
0	59368	931.4	1.4
0	59455	932.4	1.4
0	59549	933.4	1.4
0	59645	934.4	1.4
0	59806	935.4	1.4
0	59925	936.4	1.4
0	60063	937.4	1.4
0	60205	938.4	1.4
0	60345	939.4	1.4
0	60472	940.4	1.4
0	62761	994.1	54.1
0	62762	994.1	53.1
0	62763	994.1	52.1
0	62764	994.1	51.1
0	62765	994.1	50.1
0	62766	994.1	49.1
0	62767	994.1	48.1
0	62768	994.1	47.1
0	62769	994.1	46.1
0	62770	994.1	45.1
0	62771	994.1	44.1
0	62772	994.1	43.1
0	62773	994.1	42.1
0	62774	994.1	41.1
0	62775	994.1	40.1
0	62776	994.1	39.1
0	62777	994.1	38.1
0	62778	994.1	37.1
0	62779	994.1	36.1
0	62780	994.1	35.1
0	62781	994.1	34.1
0	62782	994.1	33.1
0	62783	994.1	32.1
0	62784	994.1	31.1
0	62785	994.1	30.1
0	62786	994.1	29.1
0	62787	994.1	28.1
0	62788	994.1	27.1
0	62789	994.1	26.1
0	62790	994.1	25.1
0	62791	994.1	24.1
0	62792	994.1	23.1
0	62793	994.1	22.1
0	62794	994.1	21.1
0	62795	994.1	20.1
0	62796	994.1	19.1
0	62797	994.1	18.1
0	69241	1121.1	144.1
0	69242	1121.1	143.1
0	69243	1121.1	142.1
0	69244	1121.1	141.1
0	69245	1121.1	140.1
0	69246	1121.1	139.1
0	69247	1121.1	138.1
0	69248	1121.1	137.1
0	69249	1121.1	136.1
0	69250	1121.1	135.1
0	69251	1121.1	134.1
0	69252	1121.1	133.1
0	69253	1121.1	132.1
0	69254	1121.1	131.1
0	69255	1121.1	130.1
0	69256	1121.1	129.1
0	69257	1121.1	128.1
0	69258	1121.1	127.1
0	69259	1121.1	126.1
0	69260	1121.1	125.1
0	69261	1121.1	124.1
0	69262	1121.1	123.1
0	69263	1121.1	122.1
0	69264	1121.1	121.1
0	69265	1121.1	120.1
0	69266	1121.1	119.1
0	69267	1121.1	118.1
0	69268	1121.1	117.1
0	69269	1121.1	116.1
0	69270	1121.1	115.1
0	69271	1121.1	114.1
0	69272	1121.1	113.1
0	69273	1121.1	112.1
0	69274	1121.1	111.1
0	69275	1121.1	110.1
0	69276	1121.1	109.1
0	69277	1121.1	108.1
0	69278	1121.1	107.1
0	69279	1121.1	106.1
0	69280	1121.1	105.1
0	69281	1121.1	104.1
0	69282	1121.1	103.1
0	69283	1121.1	102.1
0	69284	1121.1	101.1
0	69285	1121.1	100.1
0	69286	1121.1	99.1
0	69287	1121.1	98.1
0	69288	1121.1	97.1
0	69289	1121.1	96.1
0	69290	1121.1	95.1
0	69291	1121.1	94.1
0	69292	1121.1	93.1
0	69293	1121.1	92.1
0	69294	1121.1	91.1
0	69295	1121.1	90.1
0	69296	1121.1	89.1
0	69297	1121.1	88.1
0	69298	1121.1	87.1
0	69299	1121.1	86.1
0	69300	1121.1	85.1
0	69301	1121.1	84.1
0	69302	1121.1	83.1
0	69303	1121.1	82.1
0	69304	1121.1	81.1
0	69305	1121.1	80.1
0	69306	1121.1	79.1
0	69307	1121.1	78.1
0	69308	1121.1	77.1
0	69309	1121.1	76.1
0	69310	1121.1	75.1
0	69311	1121.1	74.1
0	69312	1121.1	73.1
0	69313	1121.1	72.1
0	69314	1121.1	71.1
0	69315	1121.1	70.1
0	69316	1121.1	69.1
0	69317	1121.1	68.1
0	69318	1121.1	67.1
0	69319	1121.1	66.1
0	69320	1121.1	65.1
0	69321	1121.1	64.1
0	69322	1121.1	63.1
0	69323	1121.1	62.1
0	69324	1121.1	61.1
0	69325	1121.1	60.1
0	69326	1121.1	59.1
0	69327	1121.1	58.1
0	69328	1121.1	57.1
0	69329	1121.1	56.1
0	69330	1121.1	55.1
0	69331	1121.1	54.1
0	69332	1121.1	53.1
0	69333	1121.1	52.1
0	69334	1121.1	51.1
0	69335	1121.1	50.1
0	69336	1121.1	49.1
0	69337	1121.1	48.1
0	69338	1121.1	47.1
0	69339	1121.1	46.1
0	69340	1121.1	45.1
0	69341	1121.1	44.1
0	69342	1121.1	43.1
0	69343	1121.1	42.1
0	69344	1121.1	41.1
0	69345	1121.1	40.1
0	69346	1121.1	39.1
0	69347	1121.1	38.1
0	69348	1121.1	37.1
0	69349	1121.1	36.1
0	69350	1121.1	35.1
0	69351	1121.1	34.1
0	69352	1121.1	33.1
0	69353	1121.1	32.1
0	69354	1121.1	31.1
0	69355	1121.1	30.1
0	69356	1121.1	29.1
0	69357	1121.1	28.1
0	69358	1121.1	27.1
0	69359	1121.1	26.1
0	69360	1121.1	25.1
0	69361	1121.1	24.1
0	69362	1121.1	23.1
0	69363	1121.1	22.1
0	69364	1121.1	21.1
0	69365	1121.1	20.1
0	69366	1121.1	19.1
0	69367	1121.1	18.1
0	69368	1121.1	17.1
0	69369	1121.1	16.1
0	69370	1121.1	15.1
0	69371	1121.1	14.1
0	69372	1121.1	13.1
0	69373	1121.1	12.1
0	69374	1121.1	11.1
0	69375	1121.1	10.1
0	69376	1121.1	9.1
0	69377	1121.1	8.1
0	69378	1121.1	7.1
0	69379	1121.1	6.1
0	69380	1121.1	5.1
0	69381	1121.1	4.1
0	69382	1121.1	3.1
0	69383	1121.1	2.1
0	70143	1121.5	1.5
0	70202	1122.5	1.5
0	70267	1123.5	1.5
0	70328	1124.5	1.5
0	70389	1125.5	1.5
0	70450	1126.5	1.5
0	70514	1127.5	1.5
0	70576	1128.5	1.5
0	70635	1129.5	1.5
0	70744	1131.5	2.5
0	70745	1131.5	1.5
0	70813	1132.5	1.5
0	70874	1133.5	1.5
0	70935	1134.5	1.5
0	70999	1135.5	1.5
0	71059	1136.5	1.5
0	71132	1137.5	1.5
0	71191	1138.3	1.3
0	71250	1139.3	1.3
0	71322	1140.3	1.3
0	71396	1141.3	1.3
0	71470	1142.3	1.3
0	71543	1143.3	1.3
0	71616	1144.3	1.3
0	71689	1145.3	1.3
0	71760	1146.3	1.3
0	71831	1147.3	1.3
0	71904	1148.3	1.3
0	71975	1149.3	1.3
0	72046	1150.3	1.3
0	72117	1151.3	1.3
0	72188	1152.3	1.3
0	72259	1153.3	1.3
0	72335	1154.3	1.3
0	72407	1155.3	1.3
0	72479	1156.3	1.3
0	72552	1157.3	1.3
0	72624	1158.3	1.3
0	72696	1159.3	1.3
0	72768	1160.3	1.3
0	72845	1161.3	1.3
0	72919	1162.3	1.3
0	72994	1163.3	1.3
0	73070	1164.3	1.3
0	73147	1165.3	1.3
0	73227	1166.3	1.3
0	73295	1167.3	1.3
0	73359	1168.3	1.3
0	73423	1169.3	1.3
0	73492	1170.3	1.3
0	73558	1171.3	1.3
0	73622	1172.3	1.3
0	73686	1173.3	1.3
0	73753	1174.3	1.3
0	73817	1175.3	1.3
0	73880	1176.3	1.3
0	73943	1177.3	1.3
0	74006	1178.3	1.3
0	74069	1179.3	1.3
0	74119	1180.3	1.3
0	74161	1181.2	1.2
0	74286	1183.4	1.4
0	74347	1184.4	1.4
0	74407	1184.6	3.6
0	74482	1185.4	1.4
0	74631	1186.4	1.4
0	74736	1187.4	1.4
0	74836	1188.4	1.4
0	75033	1190.4	1.4
0	75034	1190.4	2.4
0	75107	1191.4	1.4
0	75179	1192.4	1.4
0	75253	1193.4	1.4
0	75323	1194.4	1.4
0	75393	1195.4	1.4
0	75463	1196.4	1.4
0	75531	1197.4	1.4
0	75599	1198.4	1.4
0	75667	1199.4	1.4
0	75735	1200.4	1.4
0	75802	1201.4	1.4
0	75871	1202.4	1.4
0	75939	1203.4	1.4
0	76007	1204.4	1.4
0	76333	1205.4	1.4
0	76532	1206.4	1.4
0	76596	1207.4	1.4
0	76661	1208.4	1.4
0	76726	1209.4	1.4
0	76793	1210.4	1.4
0	76859	1211.4	1.4
0	76927	1212.4	1.4
0	76979	1213.4	1.4
0	77027	1214.4	1.4
0	77071	1215.4	1.4
0	77112	1216.4	1.4
0	77159	1217.4	1.4
0	77199	1218.4	1.4
0	77243	1219.4	1.4
0	77287	1220.4	1.4
0	77473	1221.4	1.4
0	77516	1222.4	1.4
0	77612	1224.5	1.5
0	77685	1225.5	1.5
0	77713	1225.9	3.9
0	77762	1226.5	1.5
0	77814	1227.5	1.5
0	77888	1228.5	1.5
0	77942	1229.5	1.5
0	77999	1230.5	1.5
0	78057	1231.5	1.5
0	78113	1232.5	1.5
0	78169	1233.5	1.5
0	78221	1234.5	1.5
0	78276	1235.5	1.5
0	78332	1236.5	1.5
0	78388	1237.5	1.5
0	78441	1238.5	1.5
0	78494	1239.5	1.5
0	78547	1240.5	1.5
0	78601	1241.5	1.5
0	78667	1242.5	1.5
0	78732	1243.3	1.3
0	78797	1244.3	1.3
0	78875	1245.3	1.3
0	78954	1246.3	1.3
0	79032	1247.3	1.3
0	79108	1248.3	1.3
0	79175	1249.3	1.3
0	79493	1250.3	1.3
0	79559	1251.2	1.2
0	79626	1252.2	1.2
0	79691	1253.2	1.2
0	79754	1254.2	1.2
0	79817	1255.2	1.2
0	79880	1256.2	1.2
0	79943	1257.2	1.2
0	80006	1258.2	1.2
0	80069	1259.2	1.2
0	80131	1260.2	1.2
0	80195	1261.2	1.2
0	80262	1262.2	1.2
0	80360	1263.3	1.3
0	80440	1264.3	1.3
0	80520	1265.3	1.3
0	80601	1266.3	1.3
0	80681	1267.3	1.3
0	80761	1268.3	1.3
0	80841	1269.3	1.3
0	80921	1270.3	1.3
0	81001	1271.3	1.3
0	81084	1272.3	1.3
0	81169	1273.3	1.3
0	81253	1274.3	1.3
0	81337	1275.3	1.3
0	114118	1355.1	80.1
0	114119	1355.1	79.1
0	114120	1355.1	78.1
0	114121	1355.1	77.1
0	114122	1355.1	76.1
0	114123	1355.1	75.1
0	114124	1355.1	74.1
0	114125	1355.1	73.1
0	114126	1355.1	72.1
0	114127	1355.1	71.1
0	125015	1362.1	24.1
0	125195	1362.2	1.2
0	125196	1362.2	6.2
0	125197	1362.2	11.2
0	125198	1362.2	16.2
0	125199	1362.2	21.2
0	125822	1362.4	34.4
0	126290	1362.6	26.6
0	126365	1362.7	3.7
0	126366	1362.7	8.7
0	126367	1362.7	13.7
0	126368	1362.7	18.7
0	126430	1362.8	31.8
0	126535	1363	24
0	126699	1363.2	6.2
0	126700	1363.2	11.2
0	126701	1363.2	1.2
0	126702	1363.2	16.2
0	126703	1363.2	21.2
0	126704	1363.2	29.2
0	126831	1363.4	30.4
0	126832	1363.4	34.4
0	127433	1363.6	78.6
0	127434	1363.6	77.6
0	127435	1363.6	76.6
0	127436	1363.6	75.6
0	127437	1363.6	74.6
0	127438	1363.6	73.6
0	127439	1363.6	72.6
0	127440	1363.6	71.6
0	127441	1363.6	70.6
0	127442	1363.6	69.6
0	127443	1363.6	68.6
0	127444	1363.6	67.6
0	127445	1363.6	66.6
0	127446	1363.6	65.6
0	127447	1363.6	64.6
0	127448	1363.6	63.6
0	127449	1363.6	62.6
0	127450	1363.6	61.6
0	127451	1363.6	60.6
0	127452	1363.6	59.6
0	127453	1363.6	58.6
0	127454	1363.6	57.6
0	127455	1363.6	56.6
0	127456	1363.6	55.6
0	127457	1363.6	54.6
0	127458	1363.6	53.6
0	127459	1363.6	52.6
0	127460	1363.6	51.6
0	127461	1363.6	50.6
0	127462	1363.6	49.6
0	127463	1363.6	48.6
0	127464	1363.6	47.6
0	127465	1363.6	46.6
0	127466	1363.6	45.6
0	127467	1363.6	44.6
0	127468	1363.6	43.6
0	127469	1363.6	42.6
0	127470	1363.6	41.6
0	127471	1363.6	40.6
0	127472	1363.6	39.6
0	127473	1363.6	38.6
0	127474	1363.6	37.6
0	127475	1363.6	26.6
0	127732	1363.7	3.7
0	127733	1363.7	8.7
0	127734	1363.7	13.7
0	127735	1363.7	18.7
0	127785	1363.8	31.8
0	127859	1364	37
0	127860	1364	24
0	127982	1364.2	6.2
0	127983	1364.2	11.2
0	127984	1364.2	1.2
0	127985	1364.2	16.2
0	127986	1364.2	21.2
0	127987	1364.2	29.2
0	128098	1364.4	34.4
0	128553	1365.2	1.2
0	128686	1366.2	1.2
0	128749	1367.2	1.2
0	128833	1368.2	1.2
0	128913	1369.2	1.2
0	129013	1370.2	1.2
0	129113	1371.2	1.2
0	129236	1372.2	1.2
0	129330	1373.2	1.2
0	129424	1374.2	1.2
0	129518	1375.2	1.2
0	129615	1376.2	1.2
0	129707	1377.2	1.2
0	129809	1378.2	1.2
0	129896	1379.2	1.2
0	129983	1380.2	1.2
0	130070	1381.2	1.2
0	130154	1382.2	1.2
0	130307	1384.2	2.2
0	130308	1384.2	1.2
0	130392	1385.2	1.2
0	130485	1386.2	1.2
0	130575	1387.2	1.2
0	130663	1388.2	1.2
0	130752	1389.2	1.2
0	130840	1390.2	1.2
0	130928	1391.2	1.2
0	131017	1392.2	1.2
0	131105	1393.2	1.2
0	131193	1394.2	1.2
0	131281	1395.2	1.2
0	131369	1396.2	1.2
0	131460	1397.2	1.2
0	131550	1398.2	1.2
0	131636	1399.2	1.2
0	131721	1400.2	1.2
0	131806	1401.2	1.2
0	131891	1402.2	1.2
0	131975	1403.2	1.2
0	132059	1404.2	1.2
0	132141	1405.2	1.2
0	132223	1406.2	1.2
0	132305	1407.2	1.2
0	132387	1408.2	1.2
0	132469	1409.2	1.2
0	132551	1410.2	1.2
0	132633	1411.2	1.2
0	132715	1412.2	1.2
0	132800	1413.2	1.2
0	132883	1414.2	1.2
0	132966	1415.2	1.2
0	133049	1416.2	1.2
0	133133	1417.2	1.2
0	133216	1418.2	1.2
0	133290	1419.2	1.2
0	133362	1420.2	1.2
0	133444	1421.2	1.2
0	133501	1422.2	1.2
0	133899	1428.4	6.4
0	133900	1428.4	5.4
0	133901	1428.4	4.4
0	133902	1428.4	3.4
0	133903	1428.4	2.4
0	133998	1428.6	1.6
0	134132	1429.6	1.6
0	134259	1430.6	1.6
0	134345	1431.6	1.6
0	134479	1432.6	1.6
0	134610	1433.6	1.6
0	134741	1434.6	1.6
0	134829	1435.6	1.6
0	134960	1436.6	1.6
0	135093	1437.6	1.6
0	135224	1438.6	1.6
0	135309	1439.6	1.6
0	135437	1440.6	1.6
0	135556	1441.6	1.6
0	135723	1442.4	1.4
0	135832	1443.4	1.4
0	135945	1444.4	1.4
0	136145	1445.4	1.4
0	136258	1446.4	1.4
0	136418	1447.4	1.4
0	136535	1448.4	1.4
0	136663	1449.4	1.4
0	136876	1450.4	1.4
0	137006	1451.4	1.4
0	137204	1452.4	1.4
0	137341	1453.2	1.2
0	137470	1454.2	1.2
0	137699	1455.2	1.2
0	137834	1456.2	1.2
0	137927	1457.2	1.2
0	138149	1458.2	1.2
0	138285	1459.2	1.2
0	138509	1460.2	1.2
0	138648	1461.2	1.2
0	138722	1462.2	1.2
0	138837	1463.2	1.2
0	138940	1464.2	1.2
0	138987	1465.2	1.2
0	139033	1466.2	1.2
0	139079	1467.2	1.2
0	139125	1468.2	1.2
0	139171	1469.2	1.2
0	139220	1470.2	1.2
0	139267	1471.2	1.2
0	139317	1472.2	1.2
0	139365	1473.2	1.2
0	139415	1474.2	1.2
0	139465	1475.2	1.2
0	139515	1476.2	1.2
0	139564	1477.2	1.2
0	139613	1478.2	1.2
0	139662	1479.2	1.2
0	139712	1480.2	1.2
0	139760	1481.2	1.2
0	139807	1482.2	1.2
0	139855	1483.2	1.2
0	140238	1484.2	1.2
0	140323	1485.3	1.3
0	140394	1486.3	1.3
0	140471	1487.3	1.3
0	140548	1488.3	1.3
0	140629	1489.3	1.3
0	140707	1490.3	1.3
0	140785	1491.3	1.3
0	140863	1492.3	1.3
0	140941	1493.3	1.3
0	141019	1494.3	1.3
0	141097	1495.3	1.3
0	141175	1496.3	1.3
0	141253	1497.3	1.3
0	141331	1498.3	1.3
0	141405	1499.3	1.3
0	141530	1501.4	2.4
0	141531	1501.4	1.4
0	141580	1502.4	1.4
0	141720	1504.4	2.4
0	141721	1504.4	1.4
0	141778	1505.4	1.4
0	141861	1506.4	1.4
0	141923	1507.4	1.4
0	141999	1508.4	1.4
0	142044	1509.4	1.4
0	142154	1510.4	1.4
0	142210	1511.4	1.4
0	142266	1512.4	1.4
0	142322	1513.4	1.4
0	142379	1514.4	1.4
0	142437	1515.4	1.4
0	142495	1516.4	1.4
0	142552	1517.4	1.4
0	142609	1518.4	1.4
0	142666	1519.4	1.4
0	142726	1520.4	1.4
0	142784	1521.4	1.4
0	142840	1522.4	1.4
0	142899	1523.4	1.4
0	142956	1524.4	1.4
0	143018	1525.4	1.4
0	143077	1526.4	1.4
0	143142	1527.4	1.4
0	143207	1528.4	1.4
0	143268	1529.4	1.4
0	143329	1530.4	1.4
0	143392	1531.4	1.4
0	143454	1532.4	1.4
0	143517	1533.4	1.4
0	143579	1534.4	1.4
0	143641	1535.4	1.4
0	143706	1536.4	1.4
0	143769	1537.4	1.4
0	143834	1538.4	1.4
0	143897	1539.4	1.4
0	143957	1540.4	1.4
0	144060	1542.4	2.4
0	144061	1542.4	1.4
0	144131	1543.4	1.4
0	144190	1544.4	1.4
0	144246	1545.4	1.4
0	144345	1547.4	2.4
0	144346	1547.4	1.4
0	144414	1548.4	1.4
0	144472	1549.4	1.4
0	144530	1550.4	1.4
0	144590	1551.4	1.4
0	144648	1552.4	1.4
0	144709	1553.4	1.4
0	144780	1554.4	1.4
0	144851	1555.4	1.4
0	144920	1556.4	1.4
0	144989	1557.4	1.4
0	145061	1558.4	1.4
0	145130	1559.4	1.4
0	145201	1560.4	1.4
0	145272	1561.4	1.4
0	145343	1562.4	1.4
0	145414	1563.4	1.4
0	145486	1564.4	1.4
0	145556	1565.4	1.4
0	145626	1566.4	1.4
0	145695	1567.4	1.4
0	145764	1568.4	1.4
0	145831	1569.4	1.4
0	145902	1570.4	1.4
0	145973	1571.4	1.4
0	146045	1572.4	1.4
0	146159	1574.4	2.4
0	146160	1574.4	1.4
0	146261	1575.4	1.4
0	146328	1576.4	1.4
0	146395	1577.4	1.4
0	146462	1578.4	1.4
0	146528	1579.4	1.4
0	146593	1580.4	1.4
0	146658	1581.4	1.4
0	146725	1582.4	1.4
0	146776	1583.4	1.4
0	147367	1600.4	17.4
0	147368	1600.4	16.4
0	147369	1600.4	15.4
0	147370	1600.4	14.4
0	147371	1600.4	13.4
0	147372	1600.4	12.4
0	147373	1600.4	11.4
0	147374	1600.4	10.4
0	147375	1600.4	9.4
0	147376	1600.4	8.4
0	147377	1600.4	7.4
0	147378	1600.4	6.4
0	147379	1600.4	5.4
0	147380	1600.4	4.4
0	147381	1600.4	3.4
0	147382	1600.4	2.4
0	147383	1600.4	1.4
0	147654	1601.4	1.4
0	147898	1602.4	1.4
0	148015	1603.4	1.4
0	148101	1604.4	1.4
0	148189	1605.4	1.4
0	148273	1606.4	1.4
0	148358	1607.4	1.4
0	148443	1608.4	1.4
0	148526	1609.4	1.4
0	148609	1610.4	1.4
0	148691	1611.4	1.4
0	148773	1612.4	1.4
0	148855	1613.4	1.4
0	148930	1614.4	1.4
0	149000	1615.4	1.4
0	149090	1616.4	1.4
0	149171	1617.4	1.4
0	149252	1618.4	1.4
0	149332	1619.4	1.4
0	149418	1620.4	1.4
0	149500	1621.4	1.4
0	149584	1622.4	1.4
0	149668	1623.4	1.4
0	149752	1624.4	1.4
0	149837	1625.4	1.4
0	149919	1626.4	1.4
0	150001	1627.4	1.4
0	150083	1628.4	1.4
0	150183	1629.4	1.4
0	150277	1630.4	1.4
0	150369	1631.4	1.4
0	150462	1632.4	1.4
0	150552	1633.4	1.4
0	150642	1634.4	1.4
0	150732	1635.4	1.4
0	150822	1636.4	1.4
0	150913	1637.4	1.4
0	151001	1638.4	1.4
0	151089	1639.4	1.4
0	151179	1640.4	1.4
0	151260	1641.4	1.4
0	151334	1642.4	1.4
0	159805	1699.1	57.1
0	159806	1699.1	56.1
0	159807	1699.1	55.1
0	159808	1699.1	54.1
0	159809	1699.1	53.1
0	159810	1699.1	52.1
0	159811	1699.1	51.1
0	159812	1699.1	50.1
0	159813	1699.1	49.1
0	166210	1713.1	14.1
0	166211	1713.1	19.1
0	166212	1713.1	6.1
0	166213	1713.1	24.1
0	166214	1713.1	11.1
0	166215	1713.1	16.1
0	166216	1713.1	3.1
0	166217	1713.1	21.1
0	166218	1713.1	8.1
0	166219	1713.1	48.1
0	166220	1713.1	53.1
0	166221	1713.1	40.1
0	166222	1713.1	45.1
0	166223	1713.1	50.1
0	166224	1713.1	42.1
0	166225	1713.1	47.1
0	166226	1713.1	52.1
0	166227	1713.1	39.1
0	166228	1713.1	44.1
0	166229	1713.1	49.1
0	166230	1713.1	41.1
0	166231	1713.1	46.1
0	166232	1713.1	51.1
0	166233	1713.1	38.1
0	166234	1713.1	62.1
0	166235	1713.1	61.1
0	166236	1713.1	60.1
0	166237	1713.1	59.1
0	166238	1713.1	58.1
0	166239	1713.1	57.1
0	166240	1713.1	56.1
0	166241	1713.1	55.1
0	166242	1713.1	54.1
0	166243	1713.1	43.1
0	166244	1713.1	37.1
0	166245	1713.1	36.1
0	166246	1713.1	35.1
0	166247	1713.1	34.1
0	166248	1713.1	33.1
0	166249	1713.1	32.1
0	166250	1713.1	31.1
0	166251	1713.1	30.1
0	166252	1713.1	29.1
0	166253	1713.1	28.1
0	166254	1713.1	27.1
0	166255	1713.1	26.1
0	166256	1713.1	13.1
0	166257	1713.1	18.1
0	166258	1713.1	5.1
0	166259	1713.1	23.1
0	166260	1713.1	10.1
0	166261	1713.1	15.1
0	166262	1713.1	2.1
0	166263	1713.1	20.1
0	166264	1713.1	7.1
0	166265	1713.1	25.1
0	166266	1713.1	12.1
0	166267	1713.1	17.1
0	166268	1713.1	4.1
0	166414	1713.3	22.3
0	166415	1713.3	9.3
0	166432	1713.5	1.5
0	166887	1714.5	1.5
0	167008	1715.5	1.5
0	167109	1716.5	1.5
0	167207	1717.5	1.5
0	167366	1718.3	1.3
0	167475	1719.3	1.3
0	167610	1720.3	1.3
0	167725	1721.3	1.3
0	167827	1722.3	1.3
0	167996	1723.3	1.3
0	168115	1724.3	1.3
0	168237	1725.3	1.3
0	168327	1726.3	1.3
0	168399	1727.3	1.3
0	168471	1728.3	1.3
0	168543	1729.3	1.3
0	168615	1730.3	1.3
0	168687	1731.3	1.3
0	168761	1732.3	1.3
0	168834	1733.3	1.3
0	168907	1734.3	1.3
0	168983	1735.3	1.3
0	169058	1736.3	1.3
0	169133	1737.3	1.3
0	169211	1738.3	1.3
0	169285	1739.3	1.3
0	169359	1740.3	1.3
0	169551	1741.3	1.3
0	169631	1742.3	1.3
0	169675	1743.3	1.3
0	171792	1790.3	47.3
0	171793	1790.3	46.3
0	171794	1790.3	45.3
0	171795	1790.3	44.3
0	171796	1790.3	43.3
0	171797	1790.3	42.3
0	171798	1790.3	41.3
0	171799	1790.3	40.3
0	171800	1790.3	39.3
0	171801	1790.3	38.3
0	171802	1790.3	37.3
0	171803	1790.3	36.3
0	171804	1790.3	35.3
0	171805	1790.3	34.3
0	171806	1790.3	33.3
0	171807	1790.3	32.3
0	171808	1790.3	31.3
0	171809	1790.3	30.3
0	171810	1790.3	29.3
0	171811	1790.3	28.3
0	171812	1790.3	27.3
0	171813	1790.3	26.3
0	171814	1790.3	25.3
0	171815	1790.3	24.3
0	171816	1790.3	23.3
0	171817	1790.3	22.3
0	171818	1790.3	21.3
0	171819	1790.3	20.3
0	171820	1790.3	19.3
0	171821	1790.3	18.3
0	171822	1790.3	17.3
0	171823	1790.3	16.3
0	171824	1790.3	15.3
0	171825	1790.3	14.3
0	171826	1790.3	13.3
0	171827	1790.3	12.3
0	171828	1790.3	11.3
0	171829	1790.3	10.3
0	171830	1790.3	9.3
0	171831	1790.3	8.3
0	171832	1790.3	7.3
0	171833	1790.3	6.3
0	171834	1790.3	5.3
0	171835	1790.3	4.3
0	171836	1790.3	3.3
0	171837	1790.3	2.3
0	171838	1790.3	1.3
0	172495	1791.3	1.3
0	172601	1792.3	1.3
0	172759	1794.3	2.3
0	172760	1794.3	1.3
0	172880	1795.3	1.3
0	172989	1796.3	1.3
0	173059	1797.3	1.3
0	173183	1798.3	1.3
0	173285	1799.3	1.3


