version 2
run General-0-20250118-14:43:50-225227
attr configname General
attr datetime 20250118-14:43:50
attr experiment General
attr inifile shaw_false.ini
attr iterationvars ""
attr iterationvarsf ""
attr measurement ""
attr network src.dtnsim
attr processid 225227
attr repetition 0
attr replication #0
attr resultdir results
attr runnumber 0
attr seedset 0
param dtnsim.central.contactsFile "\"contactPlan/Contacts.txt\""
param dtnsim.central.contactsFile_A "\"contactPlan/Contacts.txt\""
param dtnsim.central.contactsFile_B "\"contactPlan/Contacts.txt\""
param dtnsim.central.contactIdsToDelete_from_celestialA "\"9 10 19 24 29 39 45 63 67 87 88 99 107 116 128 141 151 153 167 169 174 197 212 215 239 256 264 268 272 288 290 301 314 316 323 330 356 369 375 382 385 390 406 409 415 429 432 438 460\""
param dtnsim.central.contactIdsToDelete_from_celestialB "\"5 21 34 42 43 44 68 69 71 72 73 75 78 79 96 114 121 129 143 152 156 161 172 191 201 204 207 208 216 226 231 262 266 295 306 311 315 340 344 346 347 370 376 384 392 419 433 449 457 478 480\""
param dtnsim.central.celestialA_nodes "\"1 2 3\""
param dtnsim.central.celestialB_nodes "\"4 5 6\""
param dtnsim.central.locallyfaultsAware false
param dtnsim.central.mode_two_celestial true
param dtnsim.nodesNumber 6
param dtnsim.node[1].icon "\"receiverdish\""
param dtnsim.node[2..5].icon "\"satellite\""
param dtnsim.node[6].icon "\"receiverdish\""
param dtnsim.node[*].dtn.routing "\"cgrModel350\""
param dtnsim.node[*].dtn.routingType "\"routeListType:allPaths-firstEnding,volumeAware:allContacts,extensionBlock:on,contactPlan:global\""
param dtnsim.node[1].app.enable true
param dtnsim.node[1].app.bundlesNumber "\"8000\""
param dtnsim.node[1].app.start "\"0\""
param dtnsim.node[1].app.destinationEid "\"6\""
param dtnsim.node[1].app.size "\"1500\""
param dtnsim.node[1].app.interval 10

vector 0 dtnsim.node[6].app appBundleReceivedDelayvec:vector ETV
attr interpolationmode none
attr source appBundleReceivedDelay
attr title "appBundleReceivedDelayvec, vector"
0	45591	37697	37697
0	45597	37697	37687
0	45603	37697	37677
0	45609	37697	37667
0	45615	37697	37657
0	45621	37697	37647
0	45627	37697	37637
0	45633	37697	37627
0	45639	37697	37617
0	45645	37697	37607
0	45651	37697	37597
0	45657	37697	37587
0	45663	37697	37577
0	45669	37697	37567
0	45675	37697	37557
0	45681	37697	37547
0	45687	37697	37537
0	45693	37697	37527
0	45699	37697	37517
0	45705	37697	37507
0	45711	37697	37497
0	45717	37697	37487
0	45723	37697	37477
0	45729	37697	37467
0	45735	37697	37457
0	45741	37697	37447
0	45747	37697	37437
0	45753	37697	37427
0	45759	37697	37417
0	45765	37697	37407
0	45771	37697	37397
0	45777	37697	37387
0	45783	37697	37377
0	45789	37697	37367
0	45795	37697	37357
0	45801	37697	37347
0	45807	37697	37337
0	45813	37697	37327
0	45819	37697	37317
0	45825	37697	37307
0	45831	37697	37297
0	45837	37697	37287
0	45843	37697	37277
0	45849	37697	37267
0	45855	37697	37257
0	45861	37697	37247
0	45867	37697	37237
0	45873	37697	37227
0	45879	37697	37217
0	45885	37697	37207
0	45891	37697	37197
0	45897	37697	37187
0	45903	37697	37177
0	45909	37697	37167
0	45915	37697	37157
0	45921	37697	37147
0	45927	37697	37137
0	45933	37697	37127
0	45939	37697	37117
0	45945	37697	37107
0	45951	37697	37097
0	45957	37697	37087
0	45963	37697	37077
0	45969	37697	37067
0	45975	37697	37057
0	45981	37697	37047
0	45987	37697	37037
0	45993	37697	37027
0	45999	37697	37017
0	46005	37697	37007
0	46011	37697	36997
0	46017	37697	36987
0	46023	37697	36977
0	46029	37697	36967
0	46035	37697	36957
0	46041	37697	36947
0	46047	37697	36937
0	46053	37697	36927
0	46059	37697	36917
0	46065	37697	36907
0	46071	37697	36897
0	46077	37697	36887
0	46083	37697	36877
0	46089	37697	36867
0	46095	37697	36857
0	46101	37697	36847
0	46107	37697	36837
0	46113	37697	36827
0	46119	37697	36817
0	46125	37697	36807
0	46131	37697	36797
0	46137	37697	36787
0	46143	37697	36777
0	46149	37697	36767
0	46155	37697	36757
0	46161	37697	36747
0	46167	37697	36737
0	46173	37697	36727
0	46179	37697	36717
0	46185	37697	36707
0	46191	37697	36697
0	46197	37697	36687
0	46203	37697	36677
0	46209	37697	36667
0	46215	37697	36657
0	46221	37697	36647
0	46227	37697	36637
0	46233	37697	36627
0	46239	37697	36617
0	46245	37697	36607
0	46251	37697	36597
0	46257	37697	36587
0	46263	37697	36577
0	46269	37697	36567
0	46275	37697	36557
0	46281	37697	36547
0	46287	37697	36537
0	46293	37697	36527
0	46299	37697	36517
0	46305	37697	36507
0	46311	37697	36497
0	46317	37697	36487
0	46323	37697	36477
0	46329	37697	36467
0	46335	37697	36457
0	46341	37697	36447
0	46347	37697	36437
0	46353	37697	36427
0	46359	37697	36417
0	46365	37697	36407
0	46371	37697	36397
0	46377	37697	36387
0	46383	37697	36377
0	46389	37697	36367
0	46395	37697	36357
0	46401	37697	36347
0	46407	37697	36337
0	46413	37697	36327
0	46419	37697	36317
0	46425	37697	36307
0	46431	37697	36297
0	46437	37697	36287
0	46443	37697	36277
0	46449	37697	36267
0	46455	37697	36257
0	46461	37697	36247
0	46467	37697	36237
0	46473	37697	36227
0	46479	37697	36217
0	46485	37697	36207
0	46491	37697	36197
0	46497	37697	36187
0	46503	37697	36177
0	46509	37697	36167
0	46515	37697	36157
0	46521	37697	36147
0	46527	37697	36137
0	46533	37697	36127
0	46539	37697	36117
0	46545	37697	36107
0	46551	37697	36097
0	46557	37697	36087
0	46563	37697	36077
0	46569	37697	36067
0	46575	37697	36057
0	46581	37697	36047
0	46587	37697	36037
0	46593	37697	36027
0	46599	37697	36017
0	46605	37697	36007
0	46611	37697	35997
0	46617	37697	35987
0	46623	37697	35977
0	46629	37697	35967
0	46635	37697	35957
0	46641	37697	35947
0	46647	37697	35937
0	46653	37697	35927
0	46659	37697	35917
0	46665	37697	35907
0	46671	37697	35897
0	46677	37697	35887
0	46683	37697	35877
0	46689	37697	35867
0	46695	37697	35857
0	46701	37697	35847
0	46707	37697	35837
0	46713	37697	35827
0	46719	37697	35817
0	46725	37697	35807
0	46731	37697	35797
0	46737	37697	35787
0	46743	37697	35777
0	46749	37697	35767
0	46755	37697	35757
0	46761	37697	35747
0	46767	37697	35737
0	46773	37697	35727
0	46779	37697	35717
0	46785	37697	35707
0	46791	37697	35697
0	46797	37697	35687
0	46803	37697	35677
0	46809	37697	35667
0	46815	37697	35657
0	46821	37697	35647
0	46827	37697	35637
0	46833	37697	35627
0	46839	37697	35617
0	46845	37697	35607
0	46851	37697	35597
0	46857	37697	35587
0	46863	37697	35577
0	46869	37697	35567
0	46875	37697	35557
0	46881	37697	35547
0	46887	37697	35537
0	46893	37697	35527
0	46899	37697	35517
0	46905	37697	35507
0	46911	37697	35497
0	46917	37697	35487
0	46923	37697	35477
0	46929	37697	35467
0	46935	37697	35457
0	46941	37697	35447
0	46947	37697	35437
0	46953	37697	35427
0	46959	37697	35417
0	46965	37697	35407
0	46971	37697	35397
0	46977	37697	35387
0	46983	37697	35377
0	46989	37697	35367
0	46995	37697	35357
0	47001	37697	35347
0	47007	37697	35337
0	47013	37697	35327
0	47019	37697	35317
0	47025	37697	35307
0	47031	37697	35297
0	47037	37697	35287
0	47043	37697	35277
0	47049	37697	35267
0	47055	37697	35257
0	47061	37697	35247
0	47067	37697	35237
0	47073	37697	35227
0	47079	37697	35217
0	47085	37697	35207
0	47091	37697	35197
0	47097	37697	35187
0	47103	37697	35177
0	47109	37697	35167
0	47115	37697	35157
0	47121	37697	35147
0	47127	37697	35137
0	47133	37697	35127
0	47139	37697	35117
0	47145	37697	35107
0	47151	37697	35097
0	47157	37697	35087
0	47163	37697	35077
0	47169	37697	35067
0	47175	37697	35057
0	47181	37697	35047
0	47187	37697	35037
0	47193	37697	35027
0	47199	37697	35017
0	47205	37697	35007
0	47211	37697	34997
0	47217	37697	34987
0	47223	37697	34977
0	47229	37697	34967
0	47235	37697	34957
0	47241	37697	34947
0	47247	37697	34937
0	47253	37697	34927
0	47259	37697	34917
0	47265	37697	34907
0	47271	37697	34897
0	47277	37697	34887
0	47283	37697	34877
0	47289	37697	34867
0	47295	37697	34857
0	47301	37697	34847
0	47307	37697	34837
0	47313	37697	34827
0	47319	37697	34817
0	47325	37697	34807
0	47331	37697	34797
0	47337	37697	34787
0	47343	37697	34777
0	47349	37697	34767
0	47355	37697	34757
0	47361	37697	34747
0	47367	37697	34737
0	47373	37697	34727
0	47379	37697	34717
0	47385	37697	34707
0	47391	37697	34697
0	47397	37697	34687
0	47403	37697	34677
0	47409	37697	34667
0	47415	37697	34657
0	47421	37697	34647
0	47427	37697	34637
0	47433	37697	34627
0	47439	37697	34617
0	47445	37697	34607
0	47451	37697	34597
0	47457	37697	34587
0	47463	37697	34577
0	47469	37697	34567
0	47475	37697	34557
0	47481	37697	34547
0	47487	37697	34537
0	47493	37697	34527
0	47499	37697	34517
0	47505	37697	34507
0	47511	37697	34497
0	47517	37697	34487
0	47523	37697	34477
0	47529	37697	34467
0	47535	37697	34457
0	47541	37697	34447
0	47547	37697	34437
0	47553	37697	34427
0	47559	37697	34417
0	47565	37697	34407
0	47571	37697	34397
0	47577	37697	34387
0	47583	37697	34377
0	47589	37697	34367
0	47595	37697	34357
0	47601	37697	34347
0	47607	37697	34337
0	47613	37697	34327
0	47619	37697	34317
0	47625	37697	34307
0	47631	37697	34297
0	47637	37697	34287
0	47643	37697	34277
0	47649	37697	34267
0	47655	37697	34257
0	47661	37697	34247
0	47667	37697	34237
0	47673	37697	34227
0	47679	37697	34217
0	47685	37697	34207
0	47691	37697	34197
0	47697	37697	34187
0	47703	37697	34177
0	47709	37697	34167
0	47715	37697	34157
0	47721	37697	34147
0	47727	37697	34137
0	47733	37697	34127
0	47739	37697	34117
0	47745	37697	34107
0	47751	37697	34097
0	47757	37697	34087
0	47763	37697	34077
0	47769	37697	34067
0	47775	37697	34057
0	47781	37697	34047
0	47787	37697	34037
0	47793	37697	34027
0	47799	37697	34017
0	47805	37697	34007
0	47811	37697	33997
0	47817	37697	33987
0	47823	37697	33977
0	47829	37697	33967
0	47835	37697	33957
0	47841	37697	33947
0	47847	37697	33937
0	47853	37697	33927
0	47859	37697	33917
0	47865	37697	33907
0	47871	37697	33897
0	47877	37697	33887
0	47883	37697	33877
0	47889	37697	33867
0	47895	37697	33857
0	47901	37697	33847
0	47907	37697	33837
0	47913	37697	33827
0	47919	37697	33817
0	47925	37697	33807
0	47931	37697	33797
0	47937	37697	33787
0	47943	37697	33777
0	47949	37697	33767
0	47955	37697	33757
0	47961	37697	33747
0	47967	37697	33737
0	47973	37697	33727
0	47979	37697	33717
0	47985	37697	33707
0	47991	37697	33697
0	47997	37697	33687
0	48003	37697	33677
0	48009	37697	33667
0	48015	37697	33657
0	48021	37697	33647
0	48027	37697	33637
0	48033	37697	33627
0	48039	37697	33617
0	48045	37697	33607
0	48051	37697	33597
0	48057	37697	33587
0	48063	37697	33577
0	48069	37697	33567
0	48075	37697	33557
0	48081	37697	33547
0	48087	37697	33537
0	48093	37697	33527
0	48099	37697	33517
0	48105	37697	33507
0	48111	37697	33497
0	48117	37697	33487
0	48123	37697	33477
0	48129	37697	33467
0	48135	37697	33457
0	48141	37697	33447
0	48147	37697	33437
0	48153	37697	33427
0	48159	37697	33417
0	48165	37697	33407
0	48171	37697	33397
0	48177	37697	33387
0	48183	37697	33377
0	48189	37697	33367
0	48195	37697	33357
0	48201	37697	33347
0	48207	37697	33337
0	48213	37697	33327
0	48219	37697	33317
0	48225	37697	33307
0	48231	37697	33297
0	48237	37697	33287
0	48243	37697	33277
0	48249	37697	33267
0	48255	37697	33257
0	48261	37697	33247
0	48267	37697	33237
0	48273	37697	33227
0	48279	37697	33217
0	48285	37697	33207
0	48291	37697	33197
0	48297	37697	33187
0	48303	37697	33177
0	48309	37697	33167
0	48315	37697	33157
0	48321	37697	33147
0	48327	37697	33137
0	48333	37697	33127
0	48339	37697	33117
0	48345	37697	33107
0	48351	37697	33097
0	48357	37697	33087
0	48363	37697	33077
0	48369	37697	33067
0	48375	37697	33057
0	48381	37697	33047
0	48387	37697	33037
0	48393	37697	33027
0	48399	37697	33017
0	48405	37697	33007
0	48411	37697	32997
0	48417	37697	32987
0	48423	37697	32977
0	48429	37697	32967
0	48435	37697	32957
0	48441	37697	32947
0	48447	37697	32937
0	48453	37697	32927
0	48459	37697	32917
0	48465	37697	32907
0	48471	37697	32897
0	48477	37697	32887
0	48483	37697	32877
0	48489	37697	32867
0	48495	37697	32857
0	48501	37697	32847
0	48507	37697	32837
0	48513	37697	32827
0	48519	37697	32817
0	48525	37697	32807
0	48531	37697	32797
0	48537	37697	32787
0	48543	37697	32777
0	48549	37697	32767
0	48555	37697	32757
0	48561	37697	32747
0	48567	37697	32737
0	48573	37697	32727
0	48579	37697	32717
0	48585	37697	32707
0	48591	37697	32697
0	48597	37697	32687
0	48603	37697	32677
0	48609	37697	32667
0	48615	37697	32657
0	48621	37697	32647
0	48627	37697	32637
0	48633	37697	32627
0	48639	37697	32617
0	48645	37697	32607
0	48651	37697	32597
0	48657	37697	32587
0	48663	37697	32577
0	48669	37697	32567
0	48675	37697	32557
0	48681	37697	32547
0	48687	37697	32537
0	48693	37697	32527
0	48699	37697	32517
0	48705	37697	32507
0	48711	37697	32497
0	48717	37697	32487
0	48723	37697	32477
0	48729	37697	32467
0	48735	37697	32457
0	48741	37697	32447
0	48747	37697	32437
0	48753	37697	32427
0	48759	37697	32417
0	48765	37697	32407
0	48771	37697	32397
0	48777	37697	32387
0	48783	37697	32377
0	48789	37697	32367
0	48795	37697	32357
0	48801	37697	32347
0	48807	37697	32337
0	48813	37697	32327
0	48819	37697	32317
0	48825	37697	32307
0	48831	37697	32297
0	48837	37697	32287
0	48843	37697	32277
0	48849	37697	32267
0	48855	37697	32257
0	48861	37697	32247
0	48867	37697	32237
0	48873	37697	32227
0	48879	37697	32217
0	48885	37697	32207
0	48891	37697	32197
0	48897	37697	32187
0	48903	37697	32177
0	48909	37697	32167
0	48915	37697	32157
0	48921	37697	32147
0	48927	37697	32137
0	48933	37697	32127
0	48939	37697	32117
0	48945	37697	32107
0	48951	37697	32097
0	48957	37697	32087
0	48963	37697	32077
0	48969	37697	32067
0	48975	37697	32057
0	48981	37697	32047
0	48987	37697	32037
0	48993	37697	32027
0	48999	37697	32017
0	49005	37697	32007
0	49011	37697	31997
0	49017	37697	31987
0	49023	37697	31977
0	49029	37697	31967
0	49035	37697	31957
0	49041	37697	31947
0	49047	37697	31937
0	49053	37697	31927
0	49059	37697	31917
0	49065	37697	31907
0	49071	37697	31897
0	49077	37697	31887
0	49083	37697	31877
0	49089	37697	31867
0	49095	37697	31857
0	49101	37697	31847
0	49107	37697	31837
0	49113	37697	31827
0	49119	37697	31817
0	49125	37697	31807
0	49131	37697	31797
0	49137	37697	31787
0	49143	37697	31777
0	49149	37697	31767
0	49155	37697	31757
0	49161	37697	31747
0	49167	37697	31737
0	49173	37697	31727
0	49179	37697	31717
0	49185	37697	31707
0	49191	37697	31697
0	49197	37697	31687
0	49203	37697	31677
0	49209	37697	31667
0	49215	37697	31657
0	49221	37697	31647
0	49227	37697	31637
0	49233	37697	31627
0	49239	37697	31617
0	49245	37697	31607
0	49251	37697	31597
0	49257	37697	31587
0	49263	37697	31577
0	49269	37697	31567
0	49275	37697	31557
0	49281	37697	31547
0	49287	37697	31537
0	49293	37697	31527
0	49299	37697	31517
0	49305	37697	31507
0	49311	37697	31497
0	49317	37697	31487
0	49323	37697	31477
0	49329	37697	31467
0	49335	37697	31457
0	49341	37697	31447
0	49347	37697	31437
0	49353	37697	31427
0	49359	37697	31417
0	49365	37697	31407
0	49371	37697	31397
0	49377	37697	31387
0	49383	37697	31377
0	49389	37697	31367
0	49395	37697	31357
0	49401	37697	31347
0	49407	37697	31337
0	49413	37697	31327
0	49419	37697	31317
0	49425	37697	31307
0	49431	37697	31297
0	49437	37697	31287
0	49443	37697	31277
0	49449	37697	31267
0	49455	37697	31257
0	49461	37697	31247
0	49467	37697	31237
0	49473	37697	31227
0	49479	37697	31217
0	49485	37697	31207
0	49491	37697	31197
0	49497	37697	31187
0	49503	37697	31177
0	49509	37697	31167
0	49515	37697	31157
0	49521	37697	31147
0	49527	37697	31137
0	49533	37697	31127
0	49539	37697	31117
0	49545	37697	31107
0	49551	37697	31097
0	49557	37697	31087
0	49563	37697	31077
0	49569	37697	31067
0	49575	37697	31057
0	49581	37697	31047
0	49587	37697	31037
0	49593	37697	31027
0	49599	37697	31017
0	49605	37697	31007
0	49611	37697	30997
0	49617	37697	30987
0	49623	37697	30977
0	49629	37697	30967
0	49635	37697	30957
0	49641	37697	30947
0	49647	37697	30937
0	49653	37697	30927
0	49659	37697	30917
0	49665	37697	30907
0	49671	37697	30897
0	49677	37697	30887
0	49683	37697	30877
0	49689	37697	30867
0	49695	37697	30857
0	49701	37697	30847
0	49707	37697	30837
0	49713	37697	30827
0	49719	37697	30817
0	49725	37697	30807
0	49731	37697	30797
0	49737	37697	30787
0	49743	37697	30777
0	49749	37697	30767
0	49755	37697	30757
0	49761	37697	30747
0	49767	37697	30737
0	49773	37697	30727
0	49779	37697	30717
0	49785	37697	30707
0	49791	37697	30697
0	49797	37697	30687
0	49803	37697	30677
0	49809	37697	30667
0	49815	37697	30657
0	49821	37697	30647
0	49827	37697	30637
0	49833	37697	30627
0	49839	37697	30617
0	49845	37697	30607
0	49851	37697	30597
0	49857	37697	30587
0	49863	37697	30577
0	49869	37697	30567
0	49875	37697	30557
0	49881	37697	30547
0	49887	37697	30537
0	49893	37697	30527
0	49899	37697	30517
0	49905	37697	30507
0	49911	37697	30497
0	49917	37697	30487
0	49923	37697	30477
0	49929	37697	30467
0	49935	37697	30457
0	49941	37697	30447
0	49947	37697	30437
0	49953	37697	30427
0	49959	37697	30417
0	49965	37697	30407
0	49971	37697	30397
0	49977	37697	30387
0	49983	37697	30377
0	49989	37697	30367
0	49995	37697	30357
0	50001	37697	30347
0	50007	37697	30337
0	50013	37697	30327
0	50019	37697	30317
0	50025	37697	30307
0	50031	37697	30297
0	50037	37697	30287
0	50043	37697	30277
0	50049	37697	30267
0	50055	37697	30257
0	50061	37697	30247
0	50067	37697	30237
0	50073	37697	30227
0	50079	37697	30217
0	50085	37697	30207
0	50091	37697	30197
0	50097	37697	30187
0	50103	37697	30177
0	50109	37697	30167
0	50115	37697	30157
0	50121	37697	30147
0	50127	37697	30137
0	50133	37697	30127
0	50139	37697	30117
0	50145	37697	30107
0	50151	37697	30097
0	50157	37697	30087
0	50163	37697	30077
0	50169	37697	30067
0	50175	37697	30057
0	50181	37697	30047
0	50187	37697	30037
0	50193	37697	30027
0	50199	37697	30017
0	50205	37697	30007
0	50211	37697	29997
0	50217	37697	29987
0	50223	37697	29977
0	50229	37697	29967
0	50235	37697	29957
0	50241	37697	29947
0	50247	37697	29937
0	50253	37697	29927
0	50259	37697	29917
0	50265	37697	29907
0	50271	37697	29897
0	50277	37697	29887
0	50283	37697	29877
0	50289	37697	29867
0	50295	37697	29857
0	50301	37697	29847
0	50307	37697	29837
0	50313	37697	29827
0	50319	37697	29817
0	50325	37697	29807
0	50331	37697	29797
0	50337	37697	29787
0	50343	37697	29777
0	50349	37697	29767
0	50355	37697	29757
0	50361	37697	29747
0	50367	37697	29737
0	50373	37697	29727
0	50379	37697	29717
0	50385	37697	29707
0	50391	37697	29697
0	50397	37697	29687
0	50403	37697	29677
0	50409	37697	29667
0	50415	37697	29657
0	50421	37697	29647
0	50427	37697	29637
0	50433	37697	29627
0	50439	37697	29617
0	50445	37697	29607
0	50451	37697	29597
0	50457	37697	29587
0	50463	37697	29577
0	50469	37697	29567
0	50475	37697	29557
0	50481	37697	29547
0	50487	37697	29537
0	50493	37697	29527
0	50499	37697	29517
0	50505	37697	29507
0	50511	37697	29497
0	50517	37697	29487
0	50523	37697	29477
0	50529	37697	29467
0	50535	37697	29457
0	50541	37697	29447
0	50547	37697	29437
0	50553	37697	29427
0	50559	37697	29417
0	50565	37697	29407
0	50571	37697	29397
0	50577	37697	29387
0	50583	37697	29377
0	50589	37697	29367
0	50595	37697	29357
0	50601	37697	29347
0	50607	37697	29337
0	50613	37697	29327
0	50619	37697	29317
0	50625	37697	29307
0	50631	37697	29297
0	50637	37697	29287
0	50643	37697	29277
0	50649	37697	29267
0	50655	37697	29257
0	50661	37697	29247
0	50667	37697	29237
0	50673	37697	29227
0	50679	37697	29217
0	50685	37697	29207
0	50691	37697	29197
0	50697	37697	29187
0	50703	37697	29177
0	50709	37697	29167
0	50715	37697	29157
0	50721	37697	29147
0	50727	37697	29137
0	50733	37697	29127
0	50739	37697	29117
0	50745	37697	29107
0	50751	37697	29097
0	50757	37697	29087
0	50763	37697	29077
0	50769	37697	29067
0	50775	37697	29057
0	50781	37697	29047
0	50787	37697	29037
0	50793	37697	29027
0	50799	37697	29017
0	50805	37697	29007
0	50811	37697	28997
0	50817	37697	28987
0	50823	37697	28977
0	50829	37697	28967
0	50835	37697	28957
0	50841	37697	28947
0	50847	37697	28937
0	50853	37697	28927
0	50859	37697	28917
0	50865	37697	28907
0	50871	37697	28897
0	50877	37697	28887
0	50883	37697	28877
0	50889	37697	28867
0	50895	37697	28857
0	50901	37697	28847
0	50907	37697	28837
0	50913	37697	28827
0	50919	37697	28817
0	50925	37697	28807
0	50931	37697	28797
0	50937	37697	28787
0	50943	37697	28777
0	50949	37697	28767
0	50955	37697	28757
0	50961	37697	28747
0	50967	37697	28737
0	50973	37697	28727
0	50979	37697	28717
0	50985	37697	28707
0	50991	37697	28697
0	50997	37697	28687
0	51003	37697	28677
0	51009	37697	28667
0	51015	37697	28657
0	51021	37697	28647
0	51027	37697	28637
0	51033	37697	28627
0	51039	37697	28617
0	51045	37697	28607
0	51051	37697	28597
0	51057	37697	28587
0	51063	37697	28577
0	51069	37697	28567
0	51075	37697	28557
0	51081	37697	28547
0	51087	37697	28537
0	51093	37697	28527
0	51099	37697	28517
0	51105	37697	28507
0	51111	37697	28497
0	51117	37697	28487
0	51123	37697	28477
0	51129	37697	28467
0	51135	37697	28457
0	51141	37697	28447
0	51147	37697	28437
0	51153	37697	28427
0	51159	37697	28417
0	51165	37697	28407
0	51171	37697	28397
0	51177	37697	28387
0	51183	37697	28377
0	51189	37697	28367
0	51195	37697	28357
0	51201	37697	28347
0	51207	37697	28337
0	51213	37697	28327
0	51219	37697	28317
0	51225	37697	28307
0	51231	37697	28297
0	51237	37697	28287
0	51243	37697	28277
0	51249	37697	28267
0	51255	37697	28257
0	51261	37697	28247
0	51267	37697	28237
0	51273	37697	28227
0	51279	37697	28217
0	51285	37697	28207
0	51291	37697	28197
0	51297	37697	28187
0	51303	37697	28177
0	51309	37697	28167
0	51315	37697	28157
0	51321	37697	28147
0	51327	37697	28137
0	51333	37697	28127
0	51339	37697	28117
0	51345	37697	28107
0	51351	37697	28097
0	51357	37697	28087
0	51363	37697	28077
0	51369	37697	28067
0	51375	37697	28057
0	51381	37697	28047
0	51387	37697	28037
0	51393	37697	28027
0	51399	37697	28017
0	51405	37697	28007
0	51411	37697	27997
0	51417	37697	27987
0	51423	37697	27977
0	51429	37697	27967
0	51435	37697	27957
0	51441	37697	27947
0	51447	37697	27937
0	51453	37697	27927
0	51459	37697	27917
0	51465	37697	27907
0	51471	37697	27897
0	51477	37697	27887
0	51483	37697	27877
0	51489	37697	27867
0	51495	37697	27857
0	51501	37697	27847
0	51507	37697	27837
0	51513	37697	27827
0	51519	37697	27817
0	51525	37697	27807
0	51531	37697	27797
0	51537	37697	27787
0	51543	37697	27777
0	51549	37697	27767
0	51555	37697	27757
0	51561	37697	27747
0	51567	37697	27737
0	51573	37697	27727
0	51579	37697	27717
0	51585	37697	27707
0	51591	37697	27697
0	51597	37697	27687
0	51603	37697	27677
0	51609	37697	27667
0	51615	37697	27657
0	51621	37697	27647
0	51627	37697	27637
0	51633	37697	27627
0	51639	37697	27617
0	51645	37697	27607
0	51651	37697	27597
0	51657	37697	27587
0	51663	37697	27577
0	51669	37697	27567
0	51675	37697	27557
0	51681	37697	27547
0	51687	37697	27537
0	51693	37697	27527
0	51699	37697	27517
0	51705	37697	27507
0	51711	37697	27497
0	51717	37697	27487
0	51723	37697	27477
0	51729	37697	27467
0	51735	37697	27457
0	51741	37697	27447
0	51747	37697	27437
0	51753	37697	27427
0	51759	37697	27417
0	51765	37697	27407
0	51771	37697	27397
0	51777	37697	27387
0	51783	37697	27377
0	51789	37697	27367
0	51795	37697	27357
0	51801	37697	27347
0	51807	37697	27337
0	51813	37697	27327
0	51819	37697	27317
0	51825	37697	27307
0	51831	37697	27297
0	51837	37697	27287
0	51843	37697	27277
0	51849	37697	27267
0	51855	37697	27257
0	51861	37697	27247
0	51867	37697	27237
0	51873	37697	27227
0	51879	37697	27217
0	51885	37697	27207
0	51891	37697	27197
0	51897	37697	27187
0	51903	37697	27177
0	51909	37697	27167
0	51915	37697	27157
0	51921	37697	27147
0	51927	37697	27137
0	51933	37697	27127
0	51939	37697	27117
0	51945	37697	27107
0	51951	37697	27097
0	51957	37697	27087
0	51963	37697	27077
0	51969	37697	27067
0	51975	37697	27057
0	51981	37697	27047
0	51987	37697	27037
0	51993	37697	27027
0	51999	37697	27017
0	52005	37697	27007
0	52011	37697	26997
0	52017	37697	26987
0	52023	37697	26977
0	52029	37697	26967
0	52035	37697	26957
0	52041	37697	26947
0	52047	37697	26937
0	52053	37697	26927
0	52059	37697	26917
0	52065	37697	26907
0	52071	37697	26897
0	52077	37697	26887
0	52083	37697	26877
0	52089	37697	26867
0	52095	37697	26857
0	52101	37697	26847
0	52107	37697	26837
0	52113	37697	26827
0	52119	37697	26817
0	52125	37697	26807
0	52131	37697	26797
0	52137	37697	26787
0	52143	37697	26777
0	52149	37697	26767
0	52155	37697	26757
0	52161	37697	26747
0	52167	37697	26737
0	52173	37697	26727
0	52179	37697	26717
0	52185	37697	26707
0	52191	37697	26697
0	52197	37697	26687
0	52203	37697	26677
0	52209	37697	26667
0	52215	37697	26657
0	52221	37697	26647
0	52227	37697	26637
0	52233	37697	26627
0	52239	37697	26617
0	52245	37697	26607
0	52251	37697	26597
0	52257	37697	26587
0	52263	37697	26577
0	52269	37697	26567
0	52275	37697	26557
0	52281	37697	26547
0	52287	37697	26537
0	52293	37697	26527
0	52299	37697	26517
0	52305	37697	26507
0	52311	37697	26497
0	52317	37697	26487
0	52323	37697	26477
0	52329	37697	26467
0	52335	37697	26457
0	52341	37697	26447
0	52347	37697	26437
0	52353	37697	26427
0	52359	37697	26417
0	52365	37697	26407
0	52371	37697	26397
0	52377	37697	26387
0	52383	37697	26377
0	52389	37697	26367
0	52395	37697	26357
0	52401	37697	26347
0	52407	37697	26337
0	52413	37697	26327
0	52419	37697	26317
0	52425	37697	26307
0	52431	37697	26297
0	52437	37697	26287
0	52443	37697	26277
0	52449	37697	26267
0	52455	37697	26257
0	52461	37697	26247
0	52467	37697	26237
0	52473	37697	26227
0	52479	37697	26217
0	52485	37697	26207
0	52491	37697	26197
0	52497	37697	26187
0	52503	37697	26177
0	52509	37697	26167
0	52515	37697	26157
0	52521	37697	26147
0	52527	37697	26137
0	52533	37697	26127
0	52539	37697	26117
0	52545	37697	26107
0	52551	37697	26097
0	52557	37697	26087
0	52563	37697	26077
0	52569	37697	26067
0	52575	37697	26057
0	52581	37697	26047
0	52587	37697	26037
0	52593	37697	26027
0	52599	37697	26017
0	52605	37697	26007
0	52611	37697	25997
0	52617	37697	25987
0	52623	37697	25977
0	52629	37697	25967
0	52635	37697	25957
0	52641	37697	25947
0	52647	37697	25937
0	52653	37697	25927
0	52659	37697	25917
0	52665	37697	25907
0	52671	37697	25897
0	52677	37697	25887
0	52683	37697	25877
0	52689	37697	25867
0	52695	37697	25857
0	52701	37697	25847
0	52707	37697	25837
0	52713	37697	25827
0	52719	37697	25817
0	52725	37697	25807
0	52731	37697	25797
0	52737	37697	25787
0	52743	37697	25777
0	52749	37697	25767
0	52755	37697	25757
0	52761	37697	25747
0	52767	37697	25737
0	52773	37697	25727
0	52779	37697	25717
0	52785	37697	25707
0	52791	37697	25697
0	52797	37697	25687
0	52803	37697	25677
0	52809	37697	25667
0	52815	37697	25657
0	52821	37697	25647
0	52827	37697	25637
0	52833	37697	25627
0	52839	37697	25617
0	52845	37697	25607
0	52851	37697	25597
0	52857	37697	25587
0	52863	37697	25577
0	52869	37697	25567
0	52875	37697	25557
0	52881	37697	25547
0	52887	37697	25537
0	52893	37697	25527
0	52899	37697	25517
0	52905	37697	25507
0	52911	37697	25497
0	52917	37697	25487
0	52923	37697	25477
0	52929	37697	25467
0	52935	37697	25457
0	52941	37697	25447
0	52947	37697	25437
0	52953	37697	25427
0	52959	37697	25417
0	52965	37697	25407
0	52971	37697	25397
0	52977	37697	25387
0	52983	37697	25377
0	52989	37697	25367
0	52995	37697	25357
0	53001	37697	25347
0	53007	37697	25337
0	53013	37697	25327
0	53019	37697	25317
0	53025	37697	25307
0	53031	37697	25297
0	53037	37697	25287
0	53043	37697	25277
0	53049	37697	25267
0	53055	37697	25257
0	53061	37697	25247
0	53067	37697	25237
0	53073	37697	25227
0	53079	37697	25217
0	53085	37697	25207
0	53091	37697	25197
0	53097	37697	25187
0	53103	37697	25177
0	53109	37697	25167
0	53115	37697	25157
0	53121	37697	25147
0	53127	37697	25137
0	53133	37697	25127
0	53139	37697	25117
0	53145	37697	25107
0	53151	37697	25097
0	53157	37697	25087
0	53163	37697	25077
0	53169	37697	25067
0	53175	37697	25057
0	53181	37697	25047
0	53187	37697	25037
0	53193	37697	25027
0	53199	37697	25017
0	53205	37697	25007
0	53211	37697	24997
0	53217	37697	24987
0	53223	37697	24977
0	53229	37697	24967
0	53235	37697	24957
0	53241	37697	24947
0	53247	37697	24937
0	53253	37697	24927
0	53259	37697	24917
0	53265	37697	24907
0	53271	37697	24897
0	53277	37697	24887
0	53283	37697	24877
0	53289	37697	24867
0	53295	37697	24857
0	53301	37697	24847
0	53307	37697	24837
0	53313	37697	24827
0	53319	37697	24817
0	53325	37697	24807
0	53331	37697	24797
0	53337	37697	24787
0	53343	37697	24777
0	53349	37697	24767
0	53355	37697	24757
0	53361	37697	24747
0	53367	37697	24737
0	53373	37697	24727
0	53379	37697	24717
0	53385	37697	24707
0	53391	37697	24697
0	53397	37697	24687
0	53403	37697	24677
0	53409	37697	24667
0	53415	37697	24657
0	53421	37697	24647
0	53427	37697	24637
0	53433	37697	24627
0	53439	37697	24617
0	53445	37697	24607
0	53451	37697	24597
0	53457	37697	24587
0	53463	37697	24577
0	53469	37697	24567
0	53475	37697	24557
0	53481	37697	24547
0	53487	37697	24537
0	53493	37697	24527
0	53499	37697	24517
0	53505	37697	24507
0	53511	37697	24497
0	53517	37697	24487
0	53523	37697	24477
0	53529	37697	24467
0	53535	37697	24457
0	53541	37697	24447
0	53547	37697	24437
0	53553	37697	24427
0	53559	37697	24417
0	53565	37697	24407
0	53571	37697	24397
0	53577	37697	24387
0	53583	37697	24377
0	53589	37697	24367
0	53595	37697	24357
0	53601	37697	24347
0	53607	37697	24337
0	53613	37697	24327
0	53619	37697	24317
0	53625	37697	24307
0	53631	37697	24297
0	53637	37697	24287
0	53643	37697	24277
0	53649	37697	24267
0	53655	37697	24257
0	53661	37697	24247
0	53667	37697	24237
0	53673	37697	24227
0	53679	37697	24217
0	53685	37697	24207
0	53691	37697	24197
0	53697	37697	24187
0	53703	37697	24177
0	53709	37697	24167
0	53715	37697	24157
0	53721	37697	24147
0	53727	37697	24137
0	53733	37697	24127
0	53739	37697	24117
0	53745	37697	24107
0	53751	37697	24097
0	53757	37697	24087
0	53763	37697	24077
0	53769	37697	24067
0	53775	37697	24057
0	53781	37697	24047
0	53787	37697	24037
0	53793	37697	24027
0	53799	37697	24017
0	53805	37697	24007
0	53811	37697	23997
0	53817	37697	23987
0	53823	37697	23977
0	53829	37697	23967
0	53835	37697	23957
0	53841	37697	23947
0	53847	37697	23937
0	53853	37697	23927
0	53859	37697	23917
0	53865	37697	23907
0	53871	37697	23897
0	53877	37697	23887
0	53883	37697	23877
0	53889	37697	23867
0	53895	37697	23857
0	53901	37697	23847
0	53907	37697	23837
0	53913	37697	23827
0	53919	37697	23817
0	53925	37697	23807
0	53931	37697	23797
0	53937	37697	23787
0	53943	37697	23777
0	53949	37697	23767
0	53955	37697	23757
0	53961	37697	23747
0	53967	37697	23737
0	53973	37697	23727
0	53979	37697	23717
0	53985	37697	23707
0	53991	37697	23697
0	53997	37697	23687
0	54003	37697	23677
0	54009	37697	23667
0	54015	37697	23657
0	54021	37697	23647
0	54027	37697	23637
0	54033	37697	23627
0	54039	37697	23617
0	54045	37697	23607
0	54051	37697	23597
0	54057	37697	23587
0	54063	37697	23577
0	54069	37697	23567
0	54075	37697	23557
0	54081	37697	23547
0	54087	37697	23537
0	54093	37697	23527
0	54099	37697	23517
0	54105	37697	23507
0	54111	37697	23497
0	54117	37697	23487
0	54123	37697	23477
0	54129	37697	23467
0	54135	37697	23457
0	54141	37697	23447
0	54147	37697	23437
0	54153	37697	23427
0	54159	37697	23417
0	54165	37697	23407
0	54171	37697	23397
0	54177	37697	23387
0	54183	37697	23377
0	54189	37697	23367
0	54195	37697	23357
0	54201	37697	23347
0	54207	37697	23337
0	54213	37697	23327
0	54219	37697	23317
0	54225	37697	23307
0	54231	37697	23297
0	54237	37697	23287
0	54243	37697	23277
0	54249	37697	23267
0	54255	37697	23257
0	54261	37697	23247
0	54267	37697	23237
0	54273	37697	23227
0	54279	37697	23217
0	54285	37697	23207
0	54291	37697	23197
0	54297	37697	23187
0	54303	37697	23177
0	54309	37697	23167
0	54315	37697	23157
0	54321	37697	23147
0	54327	37697	23137
0	54333	37697	23127
0	54339	37697	23117
0	54345	37697	23107
0	54351	37697	23097
0	54357	37697	23087
0	54363	37697	23077
0	54369	37697	23067
0	54375	37697	23057
0	54381	37697	23047
0	54387	37697	23037
0	54393	37697	23027
0	54399	37697	23017
0	54405	37697	23007
0	54411	37697	22997
0	54417	37697	22987
0	54423	37697	22977
0	54429	37697	22967
0	54435	37697	22957
0	54441	37697	22947
0	54447	37697	22937
0	54453	37697	22927
0	54459	37697	22917
0	54465	37697	22907
0	54471	37697	22897
0	54477	37697	22887
0	54483	37697	22877
0	54489	37697	22867
0	54495	37697	22857
0	54501	37697	22847
0	54507	37697	22837
0	54513	37697	22827
0	54519	37697	22817
0	54525	37697	22807
0	54531	37697	22797
0	54537	37697	22787
0	54543	37697	22777
0	54549	37697	22767
0	54555	37697	22757
0	54561	37697	22747
0	54567	37697	22737
0	54573	37697	22727
0	54579	37697	22717
0	54585	37697	22707
0	54591	37697	22697
0	54597	37697	22687
0	54603	37697	22677
0	54609	37697	22667
0	54615	37697	22657
0	54621	37697	22647
0	54627	37697	22637
0	54633	37697	22627
0	54639	37697	22617
0	54645	37697	22607
0	54651	37697	22597
0	54657	37697	22587
0	54663	37697	22577
0	54669	37697	22567
0	54675	37697	22557
0	54681	37697	22547
0	54687	37697	22537
0	54693	37697	22527
0	54699	37697	22517
0	54705	37697	22507
0	54711	37697	22497
0	54717	37697	22487
0	54723	37697	22477
0	54729	37697	22467
0	54735	37697	22457
0	54741	37697	22447
0	54747	37697	22437
0	54753	37697	22427
0	54759	37697	22417
0	54765	37697	22407
0	54771	37697	22397
0	54777	37697	22387
0	54783	37697	22377
0	54789	37697	22367
0	54795	37697	22357
0	54801	37697	22347
0	54807	37697	22337
0	54813	37697	22327
0	54819	37697	22317
0	54825	37697	22307
0	54831	37697	22297
0	54837	37697	22287
0	54843	37697	22277
0	54849	37697	22267
0	54855	37697	22257
0	54861	37697	22247
0	54867	37697	22237
0	54873	37697	22227
0	54879	37697	22217
0	54885	37697	22207
0	54891	37697	22197
0	54897	37697	22187
0	54903	37697	22177
0	54909	37697	22167
0	54915	37697	22157
0	54921	37697	22147
0	54927	37697	22137
0	54933	37697	22127
0	54939	37697	22117
0	54945	37697	22107
0	54951	37697	22097
0	54957	37697	22087
0	54963	37697	22077
0	54969	37697	22067
0	54975	37697	22057
0	54981	37697	22047
0	54987	37697	22037
0	54993	37697	22027
0	54999	37697	22017
0	55005	37697	22007
0	55011	37697	21997
0	55017	37697	21987
0	55023	37697	21977
0	55029	37697	21967
0	55035	37697	21957
0	55041	37697	21947
0	55047	37697	21937
0	55053	37697	21927
0	55059	37697	21917
0	55065	37697	21907
0	55071	37697	21897
0	55077	37697	21887
0	55083	37697	21877
0	55089	37697	21867
0	55095	37697	21857
0	55101	37697	21847
0	55107	37697	21837
0	55113	37697	21827
0	55119	37697	21817
0	55125	37697	21807
0	55131	37697	21797
0	55137	37697	21787
0	55143	37697	21777
0	55149	37697	21767
0	55155	37697	21757
0	55161	37697	21747
0	55167	37697	21737
0	55173	37697	21727
0	55179	37697	21717
0	55185	37697	21707
0	55191	37697	21697
0	55197	37697	21687
0	55203	37697	21677
0	55209	37697	21667
0	55215	37697	21657
0	55221	37697	21647
0	55227	37697	21637
0	55233	37697	21627
0	55239	37697	21617
0	55245	37697	21607
0	55251	37697	21597
0	55257	37697	21587
0	55263	37697	21577
0	55269	37697	21567
0	55275	37697	21557
0	55281	37697	21547
0	55287	37697	21537
0	55293	37697	21527
0	55299	37697	21517
0	55305	37697	21507
0	55311	37697	21497
0	55317	37697	21487
0	55323	37697	21477
0	55329	37697	21467
0	55335	37697	21457
0	55341	37697	21447
0	55347	37697	21437
0	55353	37697	21427
0	55359	37697	21417
0	55365	37697	21407
0	55371	37697	21397
0	55377	37697	21387
0	55383	37697	21377
0	55389	37697	21367
0	55395	37697	21357
0	55401	37697	21347
0	55407	37697	21337
0	55413	37697	21327
0	55419	37697	21317
0	55425	37697	21307
0	55431	37697	21297
0	55437	37697	21287
0	55443	37697	21277
0	55449	37697	21267
0	55455	37697	21257
0	55461	37697	21247
0	55467	37697	21237
0	55473	37697	21227
0	55479	37697	21217
0	55485	37697	21207
0	55491	37697	21197
0	55497	37697	21187
0	55503	37697	21177
0	55509	37697	21167
0	55515	37697	21157
0	55521	37697	21147
0	55527	37697	21137
0	55533	37697	21127
0	55539	37697	21117
0	55545	37697	21107
0	55551	37697	21097
0	55557	37697	21087
0	55563	37697	21077
0	55569	37697	21067
0	55575	37697	21057
0	55581	37697	21047
0	55587	37697	21037
0	55593	37697	21027
0	55599	37697	21017
0	55605	37697	21007
0	55611	37697	20997
0	55617	37697	20987
0	55623	37697	20977
0	55629	37697	20967
0	55635	37697	20957
0	55641	37697	20947
0	55647	37697	20937
0	55653	37697	20927
0	55659	37697	20917
0	55665	37697	20907
0	55671	37697	20897
0	55677	37697	20887
0	55683	37697	20877
0	55689	37697	20867
0	55695	37697	20857
0	55701	37697	20847
0	55707	37697	20837
0	55713	37697	20827
0	55719	37697	20817
0	55725	37697	20807
0	55731	37697	20797
0	55737	37697	20787
0	55743	37697	20777
0	55749	37697	20767
0	55755	37697	20757
0	55761	37697	20747
0	55767	37697	20737
0	55773	37697	20727
0	55779	37697	20717
0	55785	37697	20707
0	55791	37697	20697
0	55797	37697	20687
0	55803	37697	20677
0	55809	37697	20667
0	55815	37697	20657
0	55821	37697	20647
0	55827	37697	20637
0	55833	37697	20627
0	55839	37697	20617
0	55845	37697	20607
0	55851	37697	20597
0	55857	37697	20587
0	55863	37697	20577
0	55869	37697	20567
0	55875	37697	20557
0	55881	37697	20547
0	55887	37697	20537
0	55893	37697	20527
0	55899	37697	20517
0	55905	37697	20507
0	55911	37697	20497
0	55917	37697	20487
0	55923	37697	20477
0	55929	37697	20467
0	55935	37697	20457
0	55941	37697	20447
0	55947	37697	20437
0	55953	37697	20427
0	55959	37697	20417
0	55965	37697	20407
0	55971	37697	20397
0	55977	37697	20387
0	55983	37697	20377
0	55989	37697	20367
0	55995	37697	20357
0	56001	37697	20347
0	56007	37697	20337
0	56013	37697	20327
0	56019	37697	20317
0	56025	37697	20307
0	56031	37697	20297
0	56037	37697	20287
0	56043	37697	20277
0	56049	37697	20267
0	56055	37697	20257
0	56061	37697	20247
0	56067	37697	20237
0	56073	37697	20227
0	56079	37697	20217
0	56085	37697	20207
0	56091	37697	20197
0	56097	37697	20187
0	56103	37697	20177
0	56109	37697	20167
0	56115	37697	20157
0	56121	37697	20147
0	56127	37697	20137
0	56133	37697	20127
0	56139	37697	20117
0	56145	37697	20107
0	56151	37697	20097
0	56157	37697	20087
0	56163	37697	20077
0	56169	37697	20067
0	56175	37697	20057
0	56181	37697	20047
0	56187	37697	20037
0	56193	37697	20027
0	56199	37697	20017
0	56205	37697	20007
0	56211	37697	19997
0	56217	37697	19987
0	56223	37697	19977
0	56229	37697	19967
0	56235	37697	19957
0	56241	37697	19947
0	56247	37697	19937
0	56253	37697	19927
0	56259	37697	19917
0	56265	37697	19907
0	56271	37697	19897
0	56277	37697	19887
0	56283	37697	19877
0	56289	37697	19867
0	56295	37697	19857
0	56301	37697	19847
0	56307	37697	19837
0	56313	37697	19827
0	56319	37697	19817
0	56325	37697	19807
0	56331	37697	19797
0	56337	37697	19787
0	56343	37697	19777
0	56349	37697	19767
0	56355	37697	19757
0	56361	37697	19747
0	56367	37697	19737
0	56373	37697	19727
0	56379	37697	19717
0	56385	37697	19707
0	56391	37697	19697
0	56397	37697	19687
0	56403	37697	19677
0	56409	37697	19667
0	56415	37697	19657
0	56421	37697	19647
0	56427	37697	19637
0	56433	37697	19627
0	56439	37697	19617
0	56445	37697	19607
0	56451	37697	19597
0	56457	37697	19587
0	56463	37697	19577
0	56469	37697	19567
0	56475	37697	19557
0	56481	37697	19547
0	56487	37697	19537
0	56493	37697	19527
0	56499	37697	19517
0	56505	37697	19507
0	56511	37697	19497
0	56517	37697	19487
0	56523	37697	19477
0	56529	37697	19467
0	56535	37697	19457
0	56541	37697	19447
0	56547	37697	19437
0	56553	37697	19427
0	56559	37697	19417
0	56565	37697	19407
0	56571	37697	19397
0	56577	37697	19387
0	56583	37697	19377
0	56589	37697	19367
0	56595	37697	19357
0	56601	37697	19347
0	56607	37697	19337
0	56613	37697	19327
0	56619	37697	19317
0	56625	37697	19307
0	56631	37697	19297
0	56637	37697	19287
0	56643	37697	19277
0	56649	37697	19267
0	56655	37697	19257
0	56661	37697	19247
0	56667	37697	19237
0	56673	37697	19227
0	56679	37697	19217
0	56685	37697	19207
0	56691	37697	19197
0	56697	37697	19187
0	56703	37697	19177
0	56709	37697	19167
0	56715	37697	19157
0	56721	37697	19147
0	56727	37697	19137
0	56733	37697	19127
0	56739	37697	19117
0	56745	37697	19107
0	56751	37697	19097
0	56757	37697	19087
0	56763	37697	19077
0	56769	37697	19067
0	56775	37697	19057
0	56781	37697	19047
0	56787	37697	19037
0	56793	37697	19027
0	56799	37697	19017
0	56805	37697	19007
0	56811	37697	18997
0	56817	37697	18987
0	56823	37697	18977
0	56829	37697	18967
0	56835	37697	18957
0	56841	37697	18947
0	56847	37697	18937
0	56853	37697	18927
0	56859	37697	18917
0	56865	37697	18907
0	56871	37697	18897
0	56877	37697	18887
0	56883	37697	18877
0	56889	37697	18867
0	56895	37697	18857
0	56901	37697	18847
0	56907	37697	18837
0	56913	37697	18827
0	56919	37697	18817
0	56925	37697	18807
0	56931	37697	18797
0	56937	37697	18787
0	56943	37697	18777
0	56949	37697	18767
0	56955	37697	18757
0	56961	37697	18747
0	56967	37697	18737
0	56973	37697	18727
0	56979	37697	18717
0	56985	37697	18707
0	56991	37697	18697
0	56997	37697	18687
0	57003	37697	18677
0	57009	37697	18667
0	57015	37697	18657
0	57021	37697	18647
0	57027	37697	18637
0	57033	37697	18627
0	57039	37697	18617
0	57045	37697	18607
0	57051	37697	18597
0	57057	37697	18587
0	57063	37697	18577
0	57069	37697	18567
0	57075	37697	18557
0	57081	37697	18547
0	57087	37697	18537
0	57093	37697	18527
0	57099	37697	18517
0	57105	37697	18507
0	57111	37697	18497
0	57117	37697	18487
0	57123	37697	18477
0	57129	37697	18467
0	57135	37697	18457
0	57141	37697	18447
0	57147	37697	18437
0	57153	37697	18427
0	57159	37697	18417
0	57165	37697	18407
0	57171	37697	18397
0	57177	37697	18387
0	57183	37697	18377
0	57189	37697	18367
0	57195	37697	18357
0	57201	37697	18347
0	57207	37697	18337
0	57213	37697	18327
0	57219	37697	18317
0	57225	37697	18307
0	57231	37697	18297
0	57237	37697	18287
0	57243	37697	18277
0	57249	37697	18267
0	57255	37697	18257
0	57261	37697	18247
0	57267	37697	18237
0	57273	37697	18227
0	57279	37697	18217
0	57285	37697	18207
0	57291	37697	18197
0	57297	37697	18187
0	57303	37697	18177
0	57309	37697	18167
0	57315	37697	18157
0	57321	37697	18147
0	57327	37697	18137
0	57333	37697	18127
0	57339	37697	18117
0	57345	37697	18107
0	57351	37697	18097
0	57357	37697	18087
0	57363	37697	18077
0	57369	37697	18067
0	57375	37697	18057
0	57381	37697	18047
0	57387	37697	18037
0	57393	37697	18027
0	57399	37697	18017
0	57405	37697	18007
0	57411	37697	17997
0	57417	37697	17987
0	57423	37697	17977
0	57429	37697	17967
0	57435	37697	17957
0	57441	37697	17947
0	57447	37697	17937
0	57453	37697	17927
0	57459	37697	17917
0	57465	37697	17907
0	57471	37697	17897
0	57477	37697	17887
0	57483	37697	17877
0	57489	37697	17867
0	57495	37697	17857
0	57501	37697	17847
0	57507	37697	17837
0	57513	37697	17827
0	57519	37697	17817
0	57525	37697	17807
0	57531	37697	17797
0	57537	37697	17787
0	57543	37697	17777
0	57549	37697	17767
0	57555	37697	17757
0	57561	37697	17747
0	57567	37697	17737
0	57573	37697	17727
0	57579	37697	17717
0	57585	37697	17707
0	57591	37697	17697
0	57597	37697	17687
0	57603	37697	17677
0	57609	37697	17667
0	57615	37697	17657
0	57621	37697	17647
0	57627	37697	17637
0	57633	37697	17627
0	57639	37697	17617
0	57645	37697	17607
0	57651	37697	17597
0	57657	37697	17587
0	57663	37697	17577
0	57669	37697	17567
0	57675	37697	17557
0	57681	37697	17547
0	57687	37697	17537
0	57693	37697	17527
0	57699	37697	17517
0	57705	37697	17507
0	57711	37697	17497
0	57717	37697	17487
0	57723	37697	17477
0	57729	37697	17467
0	57735	37697	17457
0	57741	37697	17447
0	57747	37697	17437
0	57753	37697	17427
0	57759	37697	17417
0	57765	37697	17407
0	57771	37697	17397
0	57777	37697	17387
0	57783	37697	17377
0	57789	37697	17367
0	57795	37697	17357
0	57801	37697	17347
0	57807	37697	17337
0	57813	37697	17327
0	57819	37697	17317
0	57825	37697	17307
0	57831	37697	17297
0	57837	37697	17287
0	57843	37697	17277
0	57849	37697	17267
0	57855	37697	17257
0	57861	37697	17247
0	57867	37697	17237
0	57873	37697	17227
0	57879	37697	17217
0	57885	37697	17207
0	57891	37697	17197
0	57897	37697	17187
0	57903	37697	17177
0	57909	37697	17167
0	57915	37697	17157
0	57921	37697	17147
0	57927	37697	17137
0	57933	37697	17127
0	57939	37697	17117
0	57945	37697	17107
0	57951	37697	17097
0	57957	37697	17087
0	57963	37697	17077
0	57969	37697	17067
0	57975	37697	17057
0	57981	37697	17047
0	57987	37697	17037
0	57993	37697	17027
0	57999	37697	17017
0	58005	37697	17007
0	58011	37697	16997
0	58017	37697	16987
0	58023	37697	16977
0	58029	37697	16967
0	58035	37697	16957
0	58041	37697	16947
0	58047	37697	16937
0	58053	37697	16927
0	58059	37697	16917
0	58065	37697	16907
0	58071	37697	16897
0	58077	37697	16887
0	58083	37697	16877
0	58089	37697	16867
0	58095	37697	16857
0	58101	37697	16847
0	58107	37697	16837
0	58113	37697	16827
0	58119	37697	16817
0	58125	37697	16807
0	58131	37697	16797
0	58137	37697	16787
0	58143	37697	16777
0	58149	37697	16767
0	58155	37697	16757
0	58161	37697	16747
0	58167	37697	16737
0	58173	37697	16727
0	58179	37697	16717
0	58185	37697	16707
0	58191	37697	16697
0	58197	37697	16687
0	58203	37697	16677
0	58209	37697	16667
0	58215	37697	16657
0	58221	37697	16647
0	58227	37697	16637
0	58233	37697	16627
0	58239	37697	16617
0	58245	37697	16607
0	58251	37697	16597
0	58257	37697	16587
0	58263	37697	16577
0	58269	37697	16567
0	58275	37697	16557
0	58281	37697	16547
0	58287	37697	16537
0	58293	37697	16527
0	58299	37697	16517
0	58305	37697	16507
0	58311	37697	16497
0	58317	37697	16487
0	58323	37697	16477
0	58329	37697	16467
0	58335	37697	16457
0	58341	37697	16447
0	58347	37697	16437
0	58353	37697	16427
0	58359	37697	16417
0	58365	37697	16407
0	58371	37697	16397
0	58377	37697	16387
0	58383	37697	16377
0	58389	37697	16367
0	58395	37697	16357
0	58401	37697	16347
0	58407	37697	16337
0	58413	37697	16327
0	58419	37697	16317
0	58425	37697	16307
0	58431	37697	16297
0	58437	37697	16287
0	58443	37697	16277
0	58449	37697	16267
0	58455	37697	16257
0	58461	37697	16247
0	58467	37697	16237
0	58473	37697	16227
0	58479	37697	16217
0	58485	37697	16207
0	58491	37697	16197
0	58497	37697	16187
0	58503	37697	16177
0	58509	37697	16167
0	58515	37697	16157
0	58521	37697	16147
0	58527	37697	16137
0	58533	37697	16127
0	58539	37697	16117
0	58545	37697	16107
0	58551	37697	16097
0	58557	37697	16087
0	58563	37697	16077
0	58569	37697	16067
0	58575	37697	16057
0	58581	37697	16047
0	58587	37697	16037
0	58593	37697	16027
0	58599	37697	16017
0	58605	37697	16007
0	58611	37697	15997
0	58617	37697	15987
0	58623	37697	15977
0	58629	37697	15967
0	58635	37697	15957
0	58641	37697	15947
0	58647	37697	15937
0	58653	37697	15927
0	58659	37697	15917
0	58665	37697	15907
0	58671	37697	15897
0	58677	37697	15887
0	58683	37697	15877
0	58689	37697	15867
0	58695	37697	15857
0	58701	37697	15847
0	58707	37697	15837
0	58713	37697	15827
0	58719	37697	15817
0	58725	37697	15807
0	58731	37697	15797
0	58737	37697	15787
0	58743	37697	15777
0	58749	37697	15767
0	58755	37697	15757
0	58761	37697	15747
0	58767	37697	15737
0	58773	37697	15727
0	58779	37697	15717
0	58785	37697	15707
0	58791	37697	15697
0	58797	37697	15687
0	58803	37697	15677
0	58809	37697	15667
0	58815	37697	15657
0	58821	37697	15647
0	58827	37697	15637
0	58833	37697	15627
0	58839	37697	15617
0	58845	37697	15607
0	58851	37697	15597
0	58857	37697	15587
0	58863	37697	15577
0	58869	37697	15567
0	58875	37697	15557
0	58881	37697	15547
0	58887	37697	15537
0	58893	37697	15527
0	58899	37697	15517
0	58905	37697	15507
0	58911	37697	15497
0	58917	37697	15487
0	58923	37697	15477
0	58929	37697	15467
0	58935	37697	15457
0	58941	37697	15447
0	58947	37697	15437
0	58953	37697	15427
0	58959	37697	15417
0	58965	37697	15407
0	58971	37697	15397
0	58977	37697	15387
0	58983	37697	15377
0	58989	37697	15367
0	58995	37697	15357
0	59001	37697	15347
0	59007	37697	15337
0	59013	37697	15327
0	59019	37697	15317
0	59025	37697	15307
0	59031	37697	15297
0	59037	37697	15287
0	59043	37697	15277
0	59049	37697	15267
0	59055	37697	15257
0	59061	37697	15247
0	59067	37697	15237
0	59073	37697	15227
0	59079	37697	15217
0	59085	37697	15207
0	59091	37697	15197
0	59097	37697	15187
0	59103	37697	15177
0	59109	37697	15167
0	59115	37697	15157
0	59121	37697	15147
0	59127	37697	15137
0	59133	37697	15127
0	59139	37697	15117
0	59145	37697	15107
0	59151	37697	15097
0	59157	37697	15087
0	59163	37697	15077
0	59169	37697	15067
0	59175	37697	15057
0	59181	37697	15047
0	59187	37697	15037
0	59193	37697	15027
0	59199	37697	15017
0	59205	37697	15007
0	59211	37697	14997
0	59217	37697	14987
0	59223	37697	14977
0	59229	37697	14967
0	59235	37697	14957
0	59241	37697	14947
0	59247	37697	14937
0	59253	37697	14927
0	59259	37697	14917
0	59265	37697	14907
0	59271	37697	14897
0	59277	37697	14887
0	59283	37697	14877
0	59289	37697	14867
0	59295	37697	14857
0	59301	37697	14847
0	59307	37697	14837
0	59313	37697	14827
0	59319	37697	14817
0	59325	37697	14807
0	59331	37697	14797
0	59337	37697	14787
0	59343	37697	14777
0	59349	37697	14767
0	59355	37697	14757
0	59361	37697	14747
0	59367	37697	14737
0	59373	37697	14727
0	59379	37697	14717
0	59385	37697	14707
0	59391	37697	14697
0	59397	37697	14687
0	59403	37697	14677
0	59409	37697	14667
0	59415	37697	14657
0	59421	37697	14647
0	59427	37697	14637
0	59433	37697	14627
0	59439	37697	14617
0	59445	37697	14607
0	59451	37697	14597
0	59457	37697	14587
0	59463	37697	14577
0	59469	37697	14567
0	59475	37697	14557
0	59481	37697	14547
0	59487	37697	14537
0	59493	37697	14527
0	59499	37697	14517
0	59505	37697	14507
0	59511	37697	14497
0	59517	37697	14487
0	59523	37697	14477
0	59529	37697	14467
0	59535	37697	14457
0	59541	37697	14447
0	59547	37697	14437
0	59553	37697	14427
0	59559	37697	14417
0	59565	37697	14407
0	59571	37697	14397
0	59577	37697	14387
0	59583	37697	14377
0	59589	37697	14367
0	59595	37697	14357
0	59601	37697	14347
0	59607	37697	14337
0	59613	37697	14327
0	59619	37697	14317
0	59625	37697	14307
0	59631	37697	14297
0	59637	37697	14287
0	59643	37697	14277
0	59649	37697	14267
0	59655	37697	14257
0	59661	37697	14247
0	59667	37697	14237
0	59673	37697	14227
0	59679	37697	14217
0	59685	37697	14207
0	59691	37697	14197
0	59697	37697	14187
0	59703	37697	14177
0	59709	37697	14167
0	59715	37697	14157
0	59721	37697	14147
0	59727	37697	14137
0	59733	37697	14127
0	59739	37697	14117
0	59745	37697	14107
0	59751	37697	14097
0	59757	37697	14087
0	59763	37697	14077
0	59769	37697	14067
0	59775	37697	14057
0	59781	37697	14047
0	59787	37697	14037
0	59793	37697	14027
0	59799	37697	14017
0	59805	37697	14007
0	59811	37697	13997
0	59817	37697	13987
0	59823	37697	13977
0	59829	37697	13967
0	59835	37697	13957
0	59841	37697	13947
0	59847	37697	13937
0	59853	37697	13927
0	59859	37697	13917
0	59865	37697	13907
0	59871	37697	13897
0	59877	37697	13887
0	59883	37697	13877
0	59889	37697	13867
0	59895	37697	13857
0	59901	37697	13847
0	59907	37697	13837
0	59913	37697	13827
0	59919	37697	13817
0	59925	37697	13807
0	59931	37697	13797
0	59937	37697	13787
0	59943	37697	13777
0	59949	37697	13767
0	59955	37697	13757
0	59961	37697	13747
0	59967	37697	13737
0	59973	37697	13727
0	59979	37697	13717
0	59985	37697	13707
0	59991	37697	13697
0	59997	37697	13687
0	60003	37697	13677
0	60009	37697	13667
0	60015	37697	13657
0	60021	37697	13647
0	60027	37697	13637
0	60033	37697	13627
0	60039	37697	13617
0	60045	37697	13607
0	60051	37697	13597
0	60057	37697	13587
0	60063	37697	13577
0	60069	37697	13567
0	60075	37697	13557
0	60081	37697	13547
0	60087	37697	13537
0	60093	37697	13527
0	60099	37697	13517
0	60105	37697	13507
0	60111	37697	13497
0	60117	37697	13487
0	60123	37697	13477
0	60129	37697	13467
0	60135	37697	13457
0	60141	37697	13447
0	60147	37697	13437
0	60153	37697	13427
0	60159	37697	13417
0	60165	37697	13407
0	60171	37697	13397
0	60177	37697	13387
0	60183	37697	13377
0	60189	37697	13367
0	60195	37697	13357
0	60201	37697	13347
0	60207	37697	13337
0	60213	37697	13327
0	60219	37697	13317
0	60225	37697	13307
0	60231	37697	13297
0	60237	37697	13287
0	60243	37697	13277
0	60249	37697	13267
0	60255	37697	13257
0	60261	37697	13247
0	60267	37697	13237
0	60273	37697	13227
0	60279	37697	13217
0	60285	37697	13207
0	60291	37697	13197
0	60297	37697	13187
0	60303	37697	13177
0	60309	37697	13167
0	60315	37697	13157
0	60321	37697	13147
0	60327	37697	13137
0	60333	37697	13127
0	60339	37697	13117
0	60345	37697	13107
0	60351	37697	13097
0	60357	37697	13087
0	60363	37697	13077
0	60369	37697	13067
0	60375	37697	13057
0	60381	37697	13047
0	60387	37697	13037
0	60393	37697	13027
0	60399	37697	13017
0	60405	37697	13007
0	60411	37697	12997
0	60417	37697	12987
0	60423	37697	12977
0	60429	37697	12967
0	60435	37697	12957
0	60441	37697	12947
0	60447	37697	12937
0	60453	37697	12927
0	60459	37697	12917
0	60465	37697	12907
0	60471	37697	12897
0	60477	37697	12887
0	60483	37697	12877
0	60489	37697	12867
0	60495	37697	12857
0	60501	37697	12847
0	60507	37697	12837
0	60513	37697	12827
0	60519	37697	12817
0	60525	37697	12807
0	60531	37697	12797
0	60537	37697	12787
0	60543	37697	12777
0	60549	37697	12767
0	60555	37697	12757
0	60561	37697	12747
0	60567	37697	12737
0	60573	37697	12727
0	60579	37697	12717
0	60585	37697	12707
0	60591	37697	12697
0	60597	37697	12687
0	60603	37697	12677
0	60609	37697	12667
0	60615	37697	12657
0	60621	37697	12647
0	60627	37697	12637
0	60633	37697	12627
0	60639	37697	12617
0	60645	37697	12607
0	60651	37697	12597
0	60657	37697	12587
0	60663	37697	12577
0	60669	37697	12567
0	60675	37697	12557
0	60681	37697	12547
0	60687	37697	12537
0	60693	37697	12527
0	60699	37697	12517
0	60705	37697	12507
0	60711	37697	12497
0	60717	37697	12487
0	60723	37697	12477
0	60729	37697	12467
0	60735	37697	12457
0	60741	37697	12447
0	60747	37697	12437
0	60753	37697	12427
0	60759	37697	12417
0	60765	37697	12407
0	60771	37697	12397
0	60777	37697	12387
0	60783	37697	12377
0	60789	37697	12367
0	60795	37697	12357
0	60801	37697	12347
0	60807	37697	12337
0	60813	37697	12327
0	60819	37697	12317
0	60825	37697	12307
0	60831	37697	12297
0	60837	37697	12287
0	60843	37697	12277
0	60849	37697	12267
0	60855	37697	12257
0	60861	37697	12247
0	60867	37697	12237
0	60873	37697	12227
0	60879	37697	12217
0	60885	37697	12207
0	60891	37697	12197
0	60897	37697	12187
0	60903	37697	12177
0	60909	37697	12167
0	60915	37697	12157
0	60921	37697	12147
0	60927	37697	12137
0	60933	37697	12127
0	60939	37697	12117
0	60945	37697	12107
0	60951	37697	12097
0	60957	37697	12087
0	60963	37697	12077
0	60969	37697	12067
0	60975	37697	12057
0	60981	37697	12047
0	60987	37697	12037
0	60993	37697	12027
0	60999	37697	12017
0	61005	37697	12007
0	61011	37697	11997
0	61017	37697	11987
0	61023	37697	11977
0	61029	37697	11967
0	61035	37697	11957
0	61041	37697	11947
0	61047	37697	11937
0	61053	37697	11927
0	61059	37697	11917
0	61065	37697	11907
0	61071	37697	11897
0	61077	37697	11887
0	61083	37697	11877
0	61089	37697	11867
0	61095	37697	11857
0	61101	37697	11847
0	61107	37697	11837
0	61113	37697	11827
0	61119	37697	11817
0	61125	37697	11807
0	61131	37697	11797
0	61137	37697	11787
0	61143	37697	11777
0	61149	37697	11767
0	61155	37697	11757
0	61161	37697	11747
0	61167	37697	11737
0	61173	37697	11727
0	61179	37697	11717
0	61185	37697	11707
0	61191	37697	11697
0	61197	37697	11687
0	61203	37697	11677
0	61209	37697	11667
0	61215	37697	11657
0	61221	37697	11647
0	61227	37697	11637
0	61233	37697	11627
0	61239	37697	11617
0	61245	37697	11607
0	61251	37697	11597
0	61257	37697	11587
0	61263	37697	11577
0	61269	37697	11567
0	61275	37697	11557
0	61281	37697	11547
0	61287	37697	11537
0	61293	37697	11527
0	61299	37697	11517
0	61305	37697	11507
0	61311	37697	11497
0	61317	37697	11487
0	61323	37697	11477
0	61329	37697	11467
0	61335	37697	11457
0	61341	37697	11447
0	61347	37697	11437
0	61353	37697	11427
0	61359	37697	11417
0	61365	37697	11407
0	61371	37697	11397
0	61377	37697	11387
0	61383	37697	11377
0	61389	37697	11367
0	61395	37697	11357
0	61401	37697	11347
0	61407	37697	11337
0	61413	37697	11327
0	61419	37697	11317
0	61425	37697	11307
0	61431	37697	11297
0	61437	37697	11287
0	61443	37697	11277
0	61449	37697	11267
0	61455	37697	11257
0	61461	37697	11247
0	61467	37697	11237
0	61473	37697	11227
0	61479	37697	11217
0	61485	37697	11207
0	61491	37697	11197
0	61497	37697	11187
0	61503	37697	11177
0	61509	37697	11167
0	61515	37697	11157
0	61521	37697	11147
0	61527	37697	11137
0	61533	37697	11127
0	61539	37697	11117
0	61545	37697	11107
0	61551	37697	11097
0	61557	37697	11087
0	61563	37697	11077
0	61569	37697	11067
0	61575	37697	11057
0	61581	37697	11047
0	61587	37697	11037
0	61593	37697	11027
0	61599	37697	11017
0	61605	37697	11007
0	61611	37697	10997
0	61617	37697	10987
0	61623	37697	10977
0	61629	37697	10967
0	61635	37697	10957
0	61641	37697	10947
0	61647	37697	10937
0	61653	37697	10927
0	61659	37697	10917
0	61665	37697	10907
0	61671	37697	10897
0	61677	37697	10887
0	61683	37697	10877
0	61689	37697	10867
0	61695	37697	10857
0	61701	37697	10847
0	61707	37697	10837
0	61713	37697	10827
0	61719	37697	10817
0	61725	37697	10807
0	61731	37697	10797
0	61737	37697	10787
0	61743	37697	10777
0	61749	37697	10767
0	61755	37697	10757
0	61761	37697	10747
0	61767	37697	10737
0	61773	37697	10727
0	61779	37697	10717
0	61785	37697	10707
0	61791	37697	10697
0	61797	37697	10687
0	61803	37697	10677
0	61809	37697	10667
0	61815	37697	10657
0	61821	37697	10647
0	61827	37697	10637
0	61833	37697	10627
0	61839	37697	10617
0	61845	37697	10607
0	61851	37697	10597
0	61857	37697	10587
0	61863	37697	10577
0	61869	37697	10567
0	61875	37697	10557
0	61881	37697	10547
0	61887	37697	10537
0	61893	37697	10527
0	61899	37697	10517
0	61905	37697	10507
0	61911	37697	10497
0	61917	37697	10487
0	61923	37697	10477
0	61929	37697	10467
0	61935	37697	10457
0	61941	37697	10447
0	61947	37697	10437
0	61953	37697	10427
0	61959	37697	10417
0	61965	37697	10407
0	61971	37697	10397
0	61977	37697	10387
0	61983	37697	10377
0	61989	37697	10367
0	61995	37697	10357
0	62001	37697	10347
0	62007	37697	10337
0	62013	37697	10327
0	62019	37697	10317
0	62025	37697	10307
0	62031	37697	10297
0	62037	37697	10287
0	62043	37697	10277
0	62049	37697	10267
0	62055	37697	10257
0	62061	37697	10247
0	62067	37697	10237
0	62073	37697	10227
0	62079	37697	10217
0	62085	37697	10207
0	62091	37697	10197
0	62097	37697	10187
0	62103	37697	10177
0	62109	37697	10167
0	62115	37697	10157
0	62121	37697	10147
0	62127	37697	10137
0	62133	37697	10127
0	62139	37697	10117
0	62145	37697	10107
0	62151	37697	10097
0	62157	37697	10087
0	62163	37697	10077
0	62169	37697	10067
0	62175	37697	10057
0	62181	37697	10047
0	62187	37697	10037
0	62193	37697	10027
0	62199	37697	10017
0	62205	37697	10007
0	62211	37697	9997
0	62217	37697	9987
0	62223	37697	9977
0	62229	37697	9967
0	62235	37697	9957
0	62241	37697	9947
0	62247	37697	9937
0	62253	37697	9927
0	62259	37697	9917
0	62265	37697	9907
0	62271	37697	9897
0	62277	37697	9887
0	62283	37697	9877
0	62289	37697	9867
0	62295	37697	9857
0	62301	37697	9847
0	62307	37697	9837
0	62313	37697	9827
0	62319	37697	9817
0	62325	37697	9807
0	62331	37697	9797
0	62337	37697	9787
0	62343	37697	9777
0	62349	37697	9767
0	62355	37697	9757
0	62361	37697	9747
0	62367	37697	9737
0	62373	37697	9727
0	62379	37697	9717
0	62385	37697	9707
0	62391	37697	9697
0	62397	37697	9687
0	62403	37697	9677
0	62409	37697	9667
0	62415	37697	9657
0	62421	37697	9647
0	62427	37697	9637
0	62433	37697	9627
0	62439	37697	9617
0	62445	37697	9607
0	62451	37697	9597
0	62457	37697	9587
0	62463	37697	9577
0	62469	37697	9567
0	62475	37697	9557
0	62481	37697	9547
0	62487	37697	9537
0	62493	37697	9527
0	62499	37697	9517
0	62505	37697	9507
0	62511	37697	9497
0	62517	37697	9487
0	62523	37697	9477
0	62529	37697	9467
0	62535	37697	9457
0	62541	37697	9447
0	62547	37697	9437
0	62553	37697	9427
0	62559	37697	9417
0	62565	37697	9407
0	62571	37697	9397
0	62577	37697	9387
0	62583	37697	9377
0	62589	37697	9367
0	62595	37697	9357
0	62601	37697	9347
0	62607	37697	9337
0	62613	37697	9327
0	62619	37697	9317
0	62625	37697	9307
0	62631	37697	9297
0	62637	37697	9287
0	62643	37697	9277
0	62649	37697	9267
0	62655	37697	9257
0	62661	37697	9247
0	62667	37697	9237
0	62673	37697	9227
0	62679	37697	9217
0	62685	37697	9207
0	62691	37697	9197
0	62697	37697	9187
0	62703	37697	9177
0	62709	37697	9167
0	62715	37697	9157
0	62721	37697	9147
0	62727	37697	9137
0	62733	37697	9127
0	62739	37697	9117
0	62745	37697	9107
0	62751	37697	9097
0	62757	37697	9087
0	62763	37697	9077
0	62769	37697	9067
0	62775	37697	9057
0	62781	37697	9047
0	62787	37697	9037
0	62793	37697	9027
0	62799	37697	9017
0	62805	37697	9007
0	62811	37697	8997
0	62817	37697	8987
0	62823	37697	8977
0	62829	37697	8967
0	62835	37697	8957
0	62841	37697	8947
0	62847	37697	8937
0	62853	37697	8927
0	62859	37697	8917
0	62865	37697	8907
0	62871	37697	8897
0	62877	37697	8887
0	62883	37697	8877
0	62889	37697	8867
0	62895	37697	8857
0	62901	37697	8847
0	62907	37697	8837
0	62913	37697	8827
0	62919	37697	8817
0	62925	37697	8807
0	62931	37697	8797
0	62937	37697	8787
0	62943	37697	8777
0	62949	37697	8767
0	62955	37697	8757
0	62961	37697	8747
0	62967	37697	8737
0	62973	37697	8727
0	62979	37697	8717
0	62985	37697	8707
0	62991	37697	8697
0	62997	37697	8687
0	63003	37697	8677
0	63009	37697	8667
0	63015	37697	8657
0	63021	37697	8647
0	63027	37697	8637
0	63033	37697	8627
0	63039	37697	8617
0	63045	37697	8607
0	63051	37697	8597
0	63057	37697	8587
0	63063	37697	8577
0	63069	37697	8567
0	63075	37697	8557
0	63081	37697	8547
0	63087	37697	8537
0	63093	37697	8527
0	63099	37697	8517
0	63105	37697	8507
0	63111	37697	8497
0	63117	37697	8487
0	63123	37697	8477
0	63129	37697	8467
0	63135	37697	8457
0	63141	37697	8447
0	63147	37697	8437
0	63153	37697	8427
0	63159	37697	8417
0	63165	37697	8407
0	63171	37697	8397
0	63177	37697	8387
0	63183	37697	8377
0	63189	37697	8367
0	63195	37697	8357
0	63201	37697	8347
0	63207	37697	8337
0	63213	37697	8327
0	63219	37697	8317
0	63225	37697	8307
0	63231	37697	8297
0	63237	37697	8287
0	63243	37697	8277
0	63249	37697	8267
0	63255	37697	8257
0	63261	37697	8247
0	63267	37697	8237
0	63273	37697	8227
0	63279	37697	8217
0	63285	37697	8207
0	63291	37697	8197
0	63297	37697	8187
0	63303	37697	8177
0	63309	37697	8167
0	63315	37697	8157
0	63321	37697	8147
0	63327	37697	8137
0	63333	37697	8127
0	63339	37697	8117
0	63345	37697	8107
0	63351	37697	8097
0	63357	37697	8087
0	63363	37697	8077
0	63369	37697	8067
0	63375	37697	8057
0	63381	37697	8047
0	63387	37697	8037
0	63393	37697	8027
0	63399	37697	8017
0	63405	37697	8007
0	63411	37697	7997
0	63417	37697	7987
0	63423	37697	7977
0	63429	37697	7967
0	63435	37697	7957
0	63441	37697	7947
0	63447	37697	7937
0	63453	37697	7927
0	63459	37697	7917
0	63465	37697	7907
0	63471	37697	7897
0	63477	37697	7887
0	63483	37697	7877
0	63489	37697	7867
0	63495	37697	7857
0	63501	37697	7847
0	63507	37697	7837
0	63513	37697	7827
0	63519	37697	7817
0	63525	37697	7807
0	63531	37697	7797
0	63537	37697	7787
0	63543	37697	7777
0	63549	37697	7767
0	63555	37697	7757
0	63561	37697	7747
0	63567	37697	7737
0	63573	37697	7727
0	63579	37697	7717
0	63585	37697	7707
0	63591	37697	7697
0	63597	37697	7687
0	63603	37697	7677
0	63609	37697	7667
0	63615	37697	7657
0	63621	37697	7647
0	63627	37697	7637
0	63633	37697	7627
0	63639	37697	7617
0	63645	37697	7607
0	63651	37697	7597
0	63657	37697	7587
0	63663	37697	7577
0	63669	37697	7567
0	63675	37697	7557
0	63681	37697	7547
0	63687	37697	7537
0	63693	37697	7527
0	63699	37697	7517
0	63705	37697	7507
0	63711	37697	7497
0	63717	37697	7487
0	63723	37697	7477
0	63729	37697	7467
0	63735	37697	7457
0	63741	37697	7447
0	63747	37697	7437
0	63753	37697	7427
0	63759	37697	7417
0	63765	37697	7407
0	63771	37697	7397
0	63777	37697	7387
0	63783	37697	7377
0	63789	37697	7367
0	63795	37697	7357
0	63801	37697	7347
0	63807	37697	7337
0	63813	37697	7327
0	63819	37697	7317
0	63825	37697	7307
0	63831	37697	7297
0	63837	37697	7287
0	63843	37697	7277
0	63849	37697	7267
0	63855	37697	7257
0	63861	37697	7247
0	63867	37697	7237
0	63873	37697	7227
0	63879	37697	7217
0	63885	37697	7207
0	63891	37697	7197
0	63897	37697	7187
0	63903	37697	7177
0	63909	37697	7167
0	63915	37697	7157
0	63921	37697	7147
0	63927	37697	7137
0	63933	37697	7127
0	63939	37697	7117
0	63945	37697	7107
0	63951	37697	7097
0	63957	37697	7087
0	63963	37697	7077
0	63969	37697	7067
0	63975	37697	7057
0	63981	37697	7047
0	63987	37697	7037
0	63993	37697	7027
0	63999	37697	7017
0	64005	37697	7007
0	64011	37697	6997
0	64017	37697	6987
0	64023	37697	6977
0	64029	37697	6967
0	64035	37697	6957
0	64041	37697	6947
0	64047	37697	6937
0	64053	37697	6927
0	64059	37697	6917
0	64065	37697	6907
0	64071	37697	6897
0	64077	37697	6887
0	64083	37697	6877
0	64089	37697	6867
0	64095	37697	6857
0	64101	37697	6847
0	64107	37697	6837
0	64113	37697	6827
0	64119	37697	6817
0	64125	37697	6807
0	64131	37697	6797
0	64137	37697	6787
0	64143	37697	6777
0	64149	37697	6767
0	64155	37697	6757
0	64161	37697	6747
0	64167	37697	6737
0	64173	37697	6727
0	64179	37697	6717
0	64185	37697	6707
0	64191	37697	6697
0	64197	37697	6687
0	64203	37697	6677
0	64209	37697	6667
0	64215	37697	6657
0	64221	37697	6647
0	64227	37697	6637
0	64233	37697	6627
0	64239	37697	6617
0	64245	37697	6607
0	64251	37697	6597
0	64257	37697	6587
0	64263	37697	6577
0	64269	37697	6567
0	64275	37697	6557
0	64281	37697	6547
0	64287	37697	6537
0	64293	37697	6527
0	64299	37697	6517
0	64305	37697	6507
0	64311	37697	6497
0	64317	37697	6487
0	64323	37697	6477
0	64329	37697	6467
0	64335	37697	6457
0	64341	37697	6447
0	64347	37697	6437
0	64353	37697	6427
0	64359	37697	6417
0	64365	37697	6407
0	64371	37697	6397
0	64377	37697	6387
0	64383	37697	6377
0	64389	37697	6367
0	64395	37697	6357
0	64401	37697	6347
0	64407	37697	6337
0	64413	37697	6327
0	64419	37697	6317
0	64425	37697	6307
0	64431	37697	6297
0	64437	37697	6287
0	64443	37697	6277
0	64449	37697	6267
0	64455	37697	6257
0	64461	37697	6247
0	64467	37697	6237
0	64473	37697	6227
0	64479	37697	6217
0	64485	37697	6207
0	64491	37697	6197
0	64497	37697	6187
0	64503	37697	6177
0	64509	37697	6167
0	64515	37697	6157
0	64521	37697	6147
0	64527	37697	6137
0	64533	37697	6127
0	64539	37697	6117
0	64545	37697	6107
0	64551	37697	6097
0	64557	37697	6087
0	64563	37697	6077
0	64569	37697	6067
0	64575	37697	6057
0	64581	37697	6047
0	64587	37697	6037
0	64593	37697	6027
0	64599	37697	6017
0	64605	37697	6007
0	64611	37697	5997
0	64617	37697	5987
0	64623	37697	5977
0	64629	37697	5967
0	64635	37697	5957
0	64641	37697	5947
0	64647	37697	5937
0	64653	37697	5927
0	64659	37697	5917
0	64665	37697	5907
0	64671	37697	5897
0	64677	37697	5887
0	64683	37697	5877
0	64689	37697	5867
0	64695	37697	5857
0	64701	37697	5847
0	64707	37697	5837
0	64713	37697	5827
0	64719	37697	5817
0	64725	37697	5807
0	64731	37697	5797
0	64737	37697	5787
0	64743	37697	5777
0	64749	37697	5767
0	64755	37697	5757
0	64761	37697	5747
0	64767	37697	5737
0	64773	37697	5727
0	64779	37697	5717
0	64785	37697	5707
0	64791	37697	5697
0	64797	37697	5687
0	64803	37697	5677
0	64809	37697	5667
0	64815	37697	5657
0	64821	37697	5647
0	64827	37697	5637
0	64833	37697	5627
0	64839	37697	5617
0	64845	37697	5607
0	64851	37697	5597
0	64857	37697	5587
0	64863	37697	5577
0	64869	37697	5567
0	64875	37697	5557
0	64881	37697	5547
0	64887	37697	5537
0	64893	37697	5527
0	64899	37697	5517
0	64905	37697	5507
0	64911	37697	5497
0	64917	37697	5487
0	64923	37697	5477
0	64929	37697	5467
0	64935	37697	5457
0	64941	37697	5447
0	64947	37697	5437
0	64953	37697	5427
0	64959	37697	5417
0	64965	37697	5407
0	64971	37697	5397
0	64977	37697	5387
0	64983	37697	5377
0	64989	37697	5367
0	64995	37697	5357
0	65001	37697	5347
0	65007	37697	5337
0	65013	37697	5327
0	65019	37697	5317
0	65025	37697	5307
0	65031	37697	5297
0	65037	37697	5287
0	65043	37697	5277
0	65049	37697	5267
0	65055	37697	5257
0	65061	37697	5247
0	65067	37697	5237
0	65073	37697	5227
0	65079	37697	5217
0	65085	37697	5207
0	65091	37697	5197
0	65097	37697	5187
0	65103	37697	5177
0	65109	37697	5167
0	65115	37697	5157
0	65121	37697	5147
0	65127	37697	5137
0	65133	37697	5127
0	65139	37697	5117
0	65145	37697	5107
0	65151	37697	5097
0	65157	37697	5087
0	65163	37697	5077
0	65169	37697	5067
0	65175	37697	5057
0	65181	37697	5047
0	65187	37697	5037
0	65193	37697	5027
0	65199	37697	5017
0	65205	37697	5007
0	65211	37697	4997
0	65217	37697	4987
0	65223	37697	4977
0	65229	37697	4967
0	65235	37697	4957
0	65241	37697	4947
0	65247	37697	4937
0	65253	37697	4927
0	65259	37697	4917
0	65265	37697	4907
0	65271	37697	4897
0	65277	37697	4887
0	65283	37697	4877
0	65289	37697	4867
0	65295	37697	4857
0	65301	37697	4847
0	65307	37697	4837
0	65313	37697	4827
0	65319	37697	4817
0	65325	37697	4807
0	65331	37697	4797
0	65337	37697	4787
0	65343	37697	4777
0	65349	37697	4767
0	65355	37697	4757
0	65361	37697	4747
0	65367	37697	4737
0	65373	37697	4727
0	65379	37697	4717
0	65385	37697	4707
0	65391	37697	4697
0	65397	37697	4687
0	65403	37697	4677
0	65409	37697	4667
0	65415	37697	4657
0	65421	37697	4647
0	65427	37697	4637
0	65433	37697	4627
0	65439	37697	4617
0	65445	37697	4607
0	65451	37697	4597
0	65457	37697	4587
0	65463	37697	4577
0	65469	37697	4567
0	65475	37697	4557
0	65481	37697	4547
0	65487	37697	4537
0	65493	37697	4527
0	65499	37697	4517
0	65505	37697	4507
0	65511	37697	4497
0	65517	37697	4487
0	65523	37697	4477
0	65529	37697	4467
0	65535	37697	4457
0	65541	37697	4447
0	65547	37697	4437
0	65553	37697	4427
0	65559	37697	4417
0	65565	37697	4407
0	65571	37697	4397
0	65577	37697	4387
0	65583	37697	4377
0	65589	37697	4367
0	65595	37697	4357
0	65601	37697	4347
0	65607	37697	4337
0	65613	37697	4327
0	65619	37697	4317
0	65625	37697	4307
0	65631	37697	4297
0	65637	37697	4287
0	65643	37697	4277
0	65649	37697	4267
0	65655	37697	4257
0	65661	37697	4247
0	65667	37697	4237
0	65673	37697	4227
0	65679	37697	4217
0	65685	37697	4207
0	65691	37697	4197
0	65697	37697	4187
0	65703	37697	4177
0	65709	37697	4167
0	65715	37697	4157
0	65721	37697	4147
0	65727	37697	4137
0	65733	37697	4127
0	65739	37697	4117
0	65745	37697	4107
0	65751	37697	4097
0	65757	37697	4087
0	65763	37697	4077
0	65769	37697	4067
0	65775	37697	4057
0	65781	37697	4047
0	65787	37697	4037
0	65793	37697	4027
0	65799	37697	4017
0	65805	37697	4007
0	65811	37697	3997
0	65817	37697	3987
0	65823	37697	3977
0	65829	37697	3967
0	65835	37697	3957
0	65841	37697	3947
0	65847	37697	3937
0	65853	37697	3927
0	65859	37697	3917
0	65865	37697	3907
0	65871	37697	3897
0	65877	37697	3887
0	65883	37697	3877
0	65889	37697	3867
0	65895	37697	3857
0	65901	37697	3847
0	65907	37697	3837
0	65913	37697	3827
0	65919	37697	3817
0	65925	37697	3807
0	65931	37697	3797
0	65937	37697	3787
0	65943	37697	3777
0	65949	37697	3767
0	65955	37697	3757
0	65961	37697	3747
0	65967	37697	3737
0	65973	37697	3727
0	65979	37697	3717
0	65985	37697	3707
0	65991	37697	3697
0	65997	37697	3687
0	66003	37697	3677
0	66009	37697	3667
0	66015	37697	3657
0	66021	37697	3647
0	66027	37697	3637
0	66033	37697	3627
0	66039	37697	3617
0	66045	37697	3607
0	66051	37697	3597
0	66057	37697	3587
0	66063	37697	3577
0	66069	37697	3567
0	66075	37697	3557
0	66081	37697	3547
0	66087	37697	3537
0	66093	37697	3527
0	66099	37697	3517
0	66105	37697	3507
0	66111	37697	3497
0	66117	37697	3487
0	66123	37697	3477
0	66129	37697	3467
0	66135	37697	3457
0	66141	37697	3447
0	66147	37697	3437
0	66153	37697	3427
0	66159	37697	3417
0	66165	37697	3407
0	66171	37697	3397
0	66177	37697	3387
0	66183	37697	3377
0	66189	37697	3367
0	66195	37697	3357
0	66201	37697	3347
0	66207	37697	3337
0	66213	37697	3327
0	66219	37697	3317
0	66225	37697	3307
0	66231	37697	3297
0	66237	37697	3287
0	66243	37697	3277
0	66249	37697	3267
0	66255	37697	3257
0	66261	37697	3247
0	66267	37697	3237
0	66273	37697	3227
0	66279	37697	3217
0	66285	37697	3207
0	66291	37697	3197
0	66297	37697	3187
0	66303	37697	3177
0	66309	37697	3167
0	66315	37697	3157
0	66321	37697	3147
0	66327	37697	3137
0	66333	37697	3127
0	66339	37697	3117
0	66345	37697	3107
0	66351	37697	3097
0	66357	37697	3087
0	66363	37697	3077
0	66369	37697	3067
0	66375	37697	3057
0	66381	37697	3047
0	66387	37697	3037
0	66393	37697	3027
0	66399	37697	3017
0	66405	37697	3007
0	66411	37697	2997
0	66417	37697	2987
0	66423	37697	2977
0	66429	37697	2967
0	66435	37697	2957
0	66441	37697	2947
0	66447	37697	2937
0	66453	37697	2927
0	66459	37697	2917
0	66465	37697	2907
0	66471	37697	2897
0	66477	37697	2887
0	66483	37697	2877
0	66489	37697	2867
0	66495	37697	2857
0	66501	37697	2847
0	66507	37697	2837
0	66513	37697	2827
0	66519	37697	2817
0	66525	37697	2807
0	66531	37697	2797
0	66537	37697	2787
0	66543	37697	2777
0	66549	37697	2767
0	66555	37697	2757
0	66561	37697	2747
0	66567	37697	2737
0	66573	37697	2727
0	66579	37697	2717
0	66585	37697	2707
0	66591	37697	2697
0	66597	37697	2687
0	66603	37697	2677
0	66609	37697	2667
0	66615	37697	2657
0	66621	37697	2647
0	66627	37697	2637
0	66633	37697	2627
0	66639	37697	2617
0	66645	37697	2607
0	66651	37697	2597
0	66657	37697	2587
0	66663	37697	2577
0	66669	37697	2567
0	66675	37697	2557
0	66681	37697	2547
0	66687	37697	2537
0	66693	37697	2527
0	66699	37697	2517
0	66705	37697	2507
0	66711	37697	2497
0	66717	37697	2487
0	66723	37697	2477
0	66729	37697	2467
0	66735	37697	2457
0	66741	37697	2447
0	66747	37697	2437
0	66753	37697	2427
0	66759	37697	2417
0	66765	37697	2407
0	66771	37697	2397
0	66777	37697	2387
0	66783	37697	2377
0	66789	37697	2367
0	66795	37697	2357
0	66801	37697	2347
0	66807	37697	2337
0	66813	37697	2327
0	66819	37697	2317
0	66825	37697	2307
0	66831	37697	2297
0	66837	37697	2287
0	66843	37697	2277
0	66849	37697	2267
0	66855	37697	2257
0	66861	37697	2247
0	66867	37697	2237
0	66873	37697	2227
0	66879	37697	2217
0	66885	37697	2207
0	66891	37697	2197
0	66897	37697	2187
0	66903	37697	2177
0	66909	37697	2167
0	66915	37697	2157
0	66921	37697	2147
0	66927	37697	2137
0	66933	37697	2127
0	66939	37697	2117
0	66945	37697	2107
0	66951	37697	2097
0	66957	37697	2087
0	66963	37697	2077
0	66969	37697	2067
0	66975	37697	2057
0	66981	37697	2047
0	66987	37697	2037
0	66993	37697	2027
0	66999	37697	2017
0	67005	37697	2007
0	67011	37697	1997
0	67017	37697	1987
0	67023	37697	1977
0	67029	37697	1967
0	67035	37697	1957
0	67041	37697	1947
0	67047	37697	1937
0	67053	37697	1927
0	67059	37697	1917
0	67065	37697	1907
0	67071	37697	1897
0	67077	37697	1887
0	67083	37697	1877
0	67089	37697	1867
0	67095	37697	1857
0	67101	37697	1847
0	67107	37697	1837
0	67113	37697	1827
0	67119	37697	1817
0	67125	37697	1807
0	67131	37697	1797
0	67137	37697	1787
0	67143	37697	1777
0	67149	37697	1767
0	67155	37697	1757
0	67161	37697	1747
0	67167	37697	1737
0	67173	37697	1727
0	67179	37697	1717
0	67185	37697	1707
0	67191	37697	1697
0	67197	37697	1687
0	67203	37697	1677
0	67209	37697	1667
0	67215	37697	1657
0	67221	37697	1647
0	67227	37697	1637
0	67233	37697	1627
0	67239	37697	1617
0	67245	37697	1607
0	67251	37697	1597
0	67257	37697	1587
0	67263	37697	1577
0	67269	37697	1567
0	67275	37697	1557
0	67281	37697	1547
0	67287	37697	1537
0	67293	37697	1527
0	67299	37697	1517
0	67305	37697	1507
0	67311	37697	1497
0	67317	37697	1487
0	67323	37697	1477
0	67329	37697	1467
0	67335	37697	1457
0	67341	37697	1447
0	67347	37697	1437
0	67353	37697	1427
0	67359	37697	1417
0	67365	37697	1407
0	67371	37697	1397
0	67377	37697	1387
0	67383	37697	1377
0	67389	37697	1367
0	67395	37697	1357
0	67401	37697	1347
0	67407	37697	1337
0	67413	37697	1327
0	67419	37697	1317
0	67425	37697	1307
0	67431	37697	1297
0	67437	37697	1287
0	67443	37697	1277
0	67449	37697	1267
0	67455	37697	1257
0	67461	37697	1247
0	67467	37697	1237
0	67473	37697	1227
0	67479	37697	1217
0	67495	37700	1210
0	67515	37710	1210
0	67534	37720	1210
0	67553	37730	1210
0	67572	37740	1210
0	67591	37750	1210
0	67610	37760	1210
0	67629	37770	1210
0	67648	37780	1210
0	67667	37790	1210
0	67686	37800	1210
0	67705	37810	1210
0	67724	37820	1210
0	67743	37830	1210
0	67762	37840	1210
0	67781	37850	1210
0	67800	37860	1210
0	67819	37870	1210
0	67838	37880	1210
0	67857	37890	1210
0	67876	37900	1210
0	67895	37910	1210
0	67914	37920	1210
0	67933	37930	1210
0	67952	37940	1210
0	67971	37950	1210
0	67990	37960	1210
0	68009	37970	1210
0	68028	37980	1210
0	68047	37990	1210
0	68066	38000	1210
0	68085	38010	1210
0	68104	38020	1210
0	68123	38030	1210
0	68142	38040	1210
0	68161	38050	1210
0	68180	38060	1210
0	68199	38070	1210
0	68218	38080	1210
0	68237	38090	1210
0	68256	38100	1210
0	68275	38110	1210
0	68294	38120	1210
0	68313	38130	1210
0	68332	38140	1210
0	68351	38150	1210
0	68370	38160	1210
0	68389	38170	1210
0	68408	38180	1210
0	68427	38190	1210
0	68446	38200	1210
0	68465	38210	1210
0	68484	38220	1210
0	68503	38230	1210
0	68522	38240	1210
0	68541	38250	1210
0	68560	38260	1210
0	68579	38270	1210
0	68598	38280	1210
0	68617	38290	1210
0	68636	38300	1210
0	68655	38310	1210
0	68674	38320	1210
0	68693	38330	1210
0	68712	38340	1210
0	68731	38350	1210
0	68750	38360	1210
0	68769	38370	1210
0	68788	38380	1210
0	68807	38390	1210
0	68826	38400	1210
0	68845	38410	1210
0	68864	38420	1210
0	68883	38430	1210
0	68902	38440	1210
0	68921	38450	1210
0	68940	38460	1210
0	68959	38470	1210
0	68978	38480	1210
0	68997	38490	1210
0	69016	38500	1210
0	69035	38510	1210
0	69054	38520	1210
0	69073	38530	1210
0	69092	38540	1210
0	69111	38550	1210
0	69130	38560	1210
0	69149	38570	1210
0	69168	38580	1210
0	69187	38590	1210
0	69206	38600	1210
0	69225	38610	1210
0	69244	38620	1210
0	69263	38630	1210
0	69282	38640	1210
0	69301	38650	1210
0	69320	38660	1210
0	69339	38670	1210
0	69358	38680	1210
0	69377	38690	1210
0	69396	38700	1210
0	69415	38710	1210
0	69434	38720	1210
0	69453	38730	1210
0	69472	38740	1210
0	69491	38750	1210
0	69510	38760	1210
0	69529	38770	1210
0	69548	38780	1210
0	69567	38790	1210
0	69586	38800	1210
0	69605	38810	1210
0	69624	38820	1210
0	69643	38830	1210
0	69662	38840	1210
0	69681	38850	1210
0	106138	69070	1190
0	106199	69080	1190
0	106260	69090	1190
0	106323	69100	1190
0	106386	69110	1190
0	106451	69120	1190
0	106513	69130	1190
0	106575	69140	1190
0	106637	69150	1190
0	106701	69160	1190
0	106766	69170	1190
0	106830	69180	1190
0	106894	69190	1190
0	106961	69200	1190
0	107028	69210	1190
0	107094	69220	1190
0	107160	69230	1190
0	107226	69240	1190
0	107292	69250	1190
0	107358	69260	1190
0	107424	69270	1190
0	107492	69280	1190
0	107559	69290	1190
0	107629	69300	1190
0	107704	69310	1190
0	107773	69320	1190
0	107842	69330	1190
0	107913	69340	1190
0	107989	69350	1190
0	108063	69360	1190
0	108135	69370	1190
0	108207	69380	1190
0	108279	69390	1190
0	108353	69400	1190
0	108431	69410	1190
0	108505	69420	1190
0	108579	69430	1190
0	108653	69440	1190
0	108731	69450	1190
0	108806	69460	1190
0	108884	69470	1190
0	108960	69480	1190
0	109039	69490	1190
0	109115	69500	1190
0	109191	69510	1190
0	109267	69520	1190
0	109343	69530	1190
0	109421	69540	1190
0	109500	69550	1190
0	109577	69560	1190
0	109658	69570	1190
0	109736	69580	1190
0	109817	69590	1190
0	109898	69600	1190
0	109977	69610	1190
0	110056	69620	1190
0	110135	69630	1190
0	110214	69640	1190
0	110293	69650	1190
0	110374	69660	1190
0	110455	69670	1190
0	110535	69680	1190
0	110615	69690	1190
0	110695	69700	1190
0	110775	69710	1190
0	110857	69720	1190
0	110938	69730	1190
0	111020	69740	1190
0	111100	69750	1190
0	111177	69760	1190
0	111254	69770	1190
0	111331	69780	1190
0	111408	69790	1190
0	111487	69800	1190
0	111565	69810	1190
0	111643	69820	1190
0	111721	69830	1190
0	111801	69840	1190
0	111879	69850	1190
0	111961	69860	1190
0	112042	69870	1190
0	112123	69880	1190
0	112202	69890	1190
0	112284	69900	1190
0	112369	69910	1190
0	112450	69920	1190
0	112533	69930	1190
0	112614	69940	1190
0	112695	69950	1190
0	112776	69960	1190
0	112860	69970	1190
0	112945	69980	1190
0	113028	69990	1190
0	113115	70000	1190
0	113198	70010	1190
0	113283	70020	1190
0	113366	70030	1190
0	113449	70040	1190
0	113532	70050	1190
0	113615	70060	1190
0	113701	70070	1190
0	113785	70080	1190
0	113870	70090	1190
0	113955	70100	1190
0	114038	70110	1190
0	114123	70120	1190
0	114209	70130	1190
0	114295	70140	1190
0	114380	70150	1190
0	114465	70160	1190
0	114550	70170	1190
0	114635	70180	1190
0	114724	70190	1190
0	114811	70200	1190
0	114902	70210	1190
0	114992	70220	1190
0	115079	70230	1190
0	115168	70240	1190
0	115256	70250	1190
0	115344	70260	1190
0	115432	70270	1190
0	115520	70280	1190
0	115608	70290	1190
0	115696	70300	1190
0	115784	70310	1190
0	115872	70320	1190
0	115962	70330	1190
0	116051	70340	1190
0	116141	70350	1190
0	116230	70360	1190
0	116319	70370	1190
0	116408	70380	1190
0	116502	70390	1190
0	116594	70400	1190
0	116684	70410	1190
0	116774	70420	1190
0	116870	70430	1190
0	116962	70440	1190
0	117054	70450	1190
0	117151	70460	1190
0	117243	70470	1190
0	117337	70480	1190
0	117432	70490	1190
0	117526	70500	1190
0	117620	70510	1190
0	117715	70520	1190
0	117810	70530	1190
0	117904	70540	1190
0	118000	70550	1190
0	118099	70560	1190
0	118194	70570	1190
0	118291	70580	1190
0	118386	70590	1190
0	118484	70600	1190
0	118581	70610	1190
0	118676	70620	1190
0	118773	70630	1190
0	118872	70640	1190
0	118970	70650	1190
0	119066	70660	1190
0	119162	70670	1190
0	119260	70680	1190
0	119357	70690	1190
0	119454	70700	1190
0	119553	70710	1190
0	119651	70720	1190
0	119749	70730	1190
0	119847	70740	1190
0	119945	70750	1190
0	120045	70760	1190
0	120146	70770	1190
0	120245	70780	1190
0	120345	70790	1190
0	120444	70800	1190
0	120543	70810	1190
0	120642	70820	1190
0	120742	70830	1190
0	120840	70840	1190
0	120938	70850	1190
0	121040	70860	1190
0	121139	70870	1190
0	121238	70880	1190
0	121337	70890	1190
0	121436	70900	1190
0	121535	70910	1190
0	121638	70920	1190
0	121737	70930	1190
0	133456	73700	1420
0	133519	73700	1410
0	133525	73700	1400
0	133531	73700	1390
0	133537	73700	1380
0	133543	73700	1370
0	133549	73700	1360
0	133555	73700	1350
0	133561	73700	1340
0	133567	73700	1330
0	133573	73700	1320
0	133579	73700	1310
0	133585	73700	1300
0	133591	73700	1290
0	133597	73700	1280
0	133603	73700	1270
0	133609	73700	1260
0	133615	73700	1250
0	133621	73700	1240
0	133627	73700	1230
0	133633	73700	1220
0	133639	73700	1210
0	133645	73700	1200
0	133651	73700	1190
0	133679	73710	1190
0	151753	79616	1676
0	151759	79616	1666
0	151765	79616	1656
0	151771	79616	1646
0	151777	79616	1636
0	151783	79616	1626
0	151789	79616	1616
0	151795	79616	1606
0	151801	79616	1596
0	151807	79616	1586
0	151813	79616	1576
0	151819	79616	1566
0	151825	79616	1556
0	151831	79616	1546
0	152727	80832	2062
0	152738	80832	2052
0	152752	80832	2042
0	152763	80832	2032
0	152777	80832	2022
0	152788	80832	2012
0	152802	80832	2002
0	152813	80832	1992
0	152827	80832	1982
0	152838	80832	1972
0	152852	80832	1962
0	152863	80832	1952
0	152877	80832	1942
0	152888	80832	1932
0	152902	80832	1922
0	152913	80832	1912
0	152927	80832	1902
0	152938	80832	1892
0	152952	80832	1882
0	152963	80832	1872
0	152977	80832	1862
0	152988	80832	1852
0	153002	80832	1842
0	153013	80832	1832
0	153027	80832	1822
0	153038	80832	1812
0	153052	80832	1802
0	153063	80832	1792
0	153077	80832	1782
0	153088	80832	1772
0	153102	80832	1762
0	153113	80832	1752
0	153127	80832	1742
0	153138	80832	1732
0	153152	80832	1722
0	153163	80832	1712
0	153177	80832	1702
0	153188	80832	1692
0	153202	80832	1682
0	153213	80832	1672
0	153227	80832	1662
0	153238	80832	1652
0	153252	80832	1642
0	153263	80832	1632
0	153277	80832	1622
0	153288	80832	1612
0	153302	80832	1602
0	153313	80832	1592
0	153327	80832	1582
0	153338	80832	1572
0	153352	80832	1562
0	153363	80832	1552
0	153377	80832	1542
0	153388	80832	1532
0	153402	80832	1522
0	153413	80832	1512
0	153427	80832	1502
0	153438	80832	1492
0	153452	80832	1482
0	153463	80832	1472
0	153477	80832	1462
0	153488	80832	1452
0	153502	80832	1442
0	153513	80832	1432
0	153527	80832	1422
0	153538	80832	1412
0	153552	80832	1402
0	153563	80832	1392
0	153577	80832	1382
0	153588	80832	1372
0	153602	80832	1362
0	153613	80832	1352
0	153627	80832	1342
0	153638	80832	1332
0	153652	80832	1322
0	153663	80832	1312
0	153677	80832	1302
0	153688	80832	1292
0	153702	80832	1282
0	153713	80832	1272
0	153727	80832	1262
0	153738	80832	1252
0	153752	80832	1242
0	153763	80832	1232
0	153777	80832	1222
0	153788	80832	1212
0	153802	80832	1202
0	153809	80832	1192
0	153829	80842	1192

