version 2
run General-0-20250117-05:35:20-190745
attr configname General
attr datetime 20250117-05:35:20
attr experiment General
attr inifile shaw_exist.ini
attr iterationvars ""
attr iterationvarsf ""
attr measurement ""
attr network src.dtnsim
attr processid 190745
attr repetition 0
attr replication #0
attr resultdir results
attr runnumber 0
attr seedset 0
param dtnsim.central.contactsFile "\"contactPlan/Contacts.txt\""
param dtnsim.central.contactsFile_A "\"contactPlan/Contacts_A.txt\""
param dtnsim.central.contactsFile_B "\"contactPlan/Contacts_B.txt\""
param dtnsim.central.contactIdsToDelete_from_celestialA "\"6 11 12 13 17 23 28 33 34 37 40 66 69 71 76 83 88 89 92 93 99 100 108 118 122 126 130 132 133 134 135 136 142 145 150 151 161 163 164 167 170 171 173 181 184 185 186 192 193 195 205 211 214 228 234 239 240 250 251 261 268 272 281 287 288 296 302 307 308 316 319 335 340 343 344 346 349 351 362 369 371 379 398 400 429 433 434 435 438 439 442 453 458 464 466 471 472 473 479\""
param dtnsim.central.contactIdsToDelete_from_celestialB "\"2 5 19 29 32 35 38 41 45 60 64 68 74 84 87 95 96 97 101 102 103 104 116 124 137 144 147 149 152 153 158 159 165 166 178 189 198 203 215 222 226 231 232 235 236 237 246 248 254 265 266 270 275 279 280 290 295 298 299 300 303 314 320 323 327 330 332 334 339 342 345 350 355 356 361 365 367 372 374 375 382 383 388 391 392 395 397 410 411 415 421 424 426 437 440 448 454 463 467 470 476\""
param dtnsim.central.celestialA_nodes "\"1 2 3\""
param dtnsim.central.celestialB_nodes "\"4 5 6\""
param dtnsim.central.locallyfaultsAware true
param dtnsim.central.mode_two_celestial true
param dtnsim.nodesNumber 6
param dtnsim.node[1].icon "\"receiverdish\""
param dtnsim.node[2..5].icon "\"satellite\""
param dtnsim.node[6].icon "\"receiverdish\""
param dtnsim.node[*].dtn.routing "\"cgrModel350\""
param dtnsim.node[*].dtn.routingType "\"routeListType:allPaths-firstEnding,volumeAware:allContacts,extensionBlock:on,contactPlan:global\""
param dtnsim.node[1].app.enable true
param dtnsim.node[1].app.bundlesNumber "\"8000\""
param dtnsim.node[1].app.start "\"0\""
param dtnsim.node[1].app.destinationEid "\"6\""
param dtnsim.node[1].app.size "\"1500\""
param dtnsim.node[1].app.interval 10

vector 0 dtnsim.node[6].app appBundleReceivedDelayvec:vector ETV
attr interpolationmode none
attr source appBundleReceivedDelay
attr title "appBundleReceivedDelayvec, vector"
0	54596	50657	50657
0	54602	50657	50647
0	54608	50657	50637
0	54614	50657	50627
0	54620	50657	50617
0	54626	50657	50607
0	54632	50657	50597
0	54638	50657	50587
0	54644	50657	50577
0	54650	50657	50567
0	54656	50657	50557
0	54662	50657	50547
0	54668	50657	50537
0	54674	50657	50527
0	54680	50657	50517
0	54686	50657	50507
0	54692	50657	50497
0	54698	50657	50487
0	54704	50657	50477
0	54710	50657	50467
0	54716	50657	50457
0	54722	50657	50447
0	54728	50657	50437
0	54734	50657	50427
0	54740	50657	50417
0	54746	50657	50407
0	54752	50657	50397
0	54758	50657	50387
0	54764	50657	50377
0	54770	50657	50367
0	54776	50657	50357
0	54782	50657	50347
0	54788	50657	50337
0	54794	50657	50327
0	54800	50657	50317
0	54806	50657	50307
0	54812	50657	50297
0	54818	50657	50287
0	54824	50657	50277
0	54830	50657	50267
0	54836	50657	50257
0	54842	50657	50247
0	54848	50657	50237
0	54854	50657	50227
0	54860	50657	50217
0	54866	50657	50207
0	54872	50657	50197
0	54878	50657	50187
0	54884	50657	50177
0	54890	50657	50167
0	54896	50657	50157
0	54902	50657	50147
0	54908	50657	50137
0	54914	50657	50127
0	54920	50657	50117
0	54926	50657	50107
0	54932	50657	50097
0	54938	50657	50087
0	54944	50657	50077
0	54950	50657	50067
0	54956	50657	50057
0	54962	50657	50047
0	54968	50657	50037
0	54974	50657	50027
0	54980	50657	50017
0	54986	50657	50007
0	54992	50657	49997
0	54998	50657	49987
0	55004	50657	49977
0	55010	50657	49967
0	55016	50657	49957
0	55022	50657	49947
0	55028	50657	49937
0	55034	50657	49927
0	55040	50657	49917
0	55046	50657	49907
0	55052	50657	49897
0	55058	50657	49887
0	55064	50657	49877
0	55070	50657	49867
0	55076	50657	49857
0	55082	50657	49847
0	55088	50657	49837
0	55094	50657	49827
0	55100	50657	49817
0	55106	50657	49807
0	55112	50657	49797
0	55118	50657	49787
0	55124	50657	49777
0	55130	50657	49767
0	55136	50657	49757
0	55142	50657	49747
0	55148	50657	49737
0	55154	50657	49727
0	55160	50657	49717
0	55166	50657	49707
0	55172	50657	49697
0	55178	50657	49687
0	55184	50657	49677
0	55190	50657	49667
0	55196	50657	49657
0	55202	50657	49647
0	55208	50657	49637
0	55214	50657	49627
0	55220	50657	49617
0	55226	50657	49607
0	55232	50657	49597
0	55238	50657	49587
0	55244	50657	49577
0	55250	50657	49567
0	55256	50657	49557
0	55262	50657	49547
0	55268	50657	49537
0	55274	50657	49527
0	55280	50657	49517
0	55286	50657	49507
0	55292	50657	49497
0	55298	50657	49487
0	55304	50657	49477
0	55310	50657	49467
0	55316	50657	49457
0	55322	50657	49447
0	55328	50657	49437
0	55334	50657	49427
0	55340	50657	49417
0	55346	50657	49407
0	55352	50657	49397
0	55358	50657	49387
0	55364	50657	49377
0	55370	50657	49367
0	55376	50657	49357
0	55382	50657	49347
0	55388	50657	49337
0	55394	50657	49327
0	55400	50657	49317
0	55406	50657	49307
0	55412	50657	49297
0	55418	50657	49287
0	55424	50657	49277
0	55430	50657	49267
0	55436	50657	49257
0	55442	50657	49247
0	55448	50657	49237
0	55454	50657	49227
0	55460	50657	49217
0	55466	50657	49207
0	55472	50657	49197
0	55478	50657	49187
0	55484	50657	49177
0	55490	50657	49167
0	55496	50657	49157
0	55502	50657	49147
0	55508	50657	49137
0	55514	50657	49127
0	55520	50657	49117
0	55526	50657	49107
0	55532	50657	49097
0	55538	50657	49087
0	55544	50657	49077
0	55550	50657	49067
0	55556	50657	49057
0	55562	50657	49047
0	55568	50657	49037
0	55574	50657	49027
0	55580	50657	49017
0	55586	50657	49007
0	55592	50657	48997
0	55598	50657	48987
0	55604	50657	48977
0	55610	50657	48967
0	55616	50657	48957
0	55622	50657	48947
0	55628	50657	48937
0	55634	50657	48927
0	55640	50657	48917
0	55646	50657	48907
0	55652	50657	48897
0	55658	50657	48887
0	55664	50657	48877
0	55670	50657	48867
0	55676	50657	48857
0	55682	50657	48847
0	55688	50657	48837
0	55694	50657	48827
0	55700	50657	48817
0	55706	50657	48807
0	55712	50657	48797
0	55718	50657	48787
0	55724	50657	48777
0	55730	50657	48767
0	55736	50657	48757
0	55742	50657	48747
0	55748	50657	48737
0	55754	50657	48727
0	55760	50657	48717
0	55766	50657	48707
0	55772	50657	48697
0	55778	50657	48687
0	55784	50657	48677
0	55790	50657	48667
0	55796	50657	48657
0	55802	50657	48647
0	55808	50657	48637
0	55814	50657	48627
0	55820	50657	48617
0	55826	50657	48607
0	55832	50657	48597
0	55838	50657	48587
0	55844	50657	48577
0	55850	50657	48567
0	55856	50657	48557
0	55862	50657	48547
0	55868	50657	48537
0	55874	50657	48527
0	55880	50657	48517
0	55886	50657	48507
0	55892	50657	48497
0	55898	50657	48487
0	55904	50657	48477
0	55910	50657	48467
0	55916	50657	48457
0	55922	50657	48447
0	55928	50657	48437
0	55934	50657	48427
0	55940	50657	48417
0	55946	50657	48407
0	55952	50657	48397
0	55958	50657	48387
0	55964	50657	48377
0	55970	50657	48367
0	55976	50657	48357
0	55982	50657	48347
0	55988	50657	48337
0	55994	50657	48327
0	56000	50657	48317
0	56006	50657	48307
0	56012	50657	48297
0	56018	50657	48287
0	56024	50657	48277
0	56030	50657	48267
0	56036	50657	48257
0	56042	50657	48247
0	56048	50657	48237
0	56054	50657	48227
0	56060	50657	48217
0	56066	50657	48207
0	56072	50657	48197
0	56078	50657	48187
0	56084	50657	48177
0	56090	50657	48167
0	56096	50657	48157
0	56102	50657	48147
0	56108	50657	48137
0	56114	50657	48127
0	56120	50657	48117
0	56126	50657	48107
0	56132	50657	48097
0	56138	50657	48087
0	56144	50657	48077
0	56150	50657	48067
0	56156	50657	48057
0	56162	50657	48047
0	56168	50657	48037
0	56174	50657	48027
0	56180	50657	48017
0	56186	50657	48007
0	56192	50657	47997
0	56198	50657	47987
0	56204	50657	47977
0	56210	50657	47967
0	56216	50657	47957
0	56222	50657	47947
0	56228	50657	47937
0	56234	50657	47927
0	56240	50657	47917
0	56246	50657	47907
0	56252	50657	47897
0	56258	50657	47887
0	56264	50657	47877
0	56270	50657	47867
0	56276	50657	47857
0	56282	50657	47847
0	56288	50657	47837
0	56294	50657	47827
0	56300	50657	47817
0	56306	50657	47807
0	56312	50657	47797
0	56318	50657	47787
0	56324	50657	47777
0	56330	50657	47767
0	56336	50657	47757
0	56342	50657	47747
0	56348	50657	47737
0	56354	50657	47727
0	56360	50657	47717
0	56366	50657	47707
0	56372	50657	47697
0	56378	50657	47687
0	56384	50657	47677
0	56390	50657	47667
0	56396	50657	47657
0	56402	50657	47647
0	56408	50657	47637
0	56414	50657	47627
0	56420	50657	47617
0	56426	50657	47607
0	56432	50657	47597
0	56438	50657	47587
0	56444	50657	47577
0	56450	50657	47567
0	56456	50657	47557
0	56462	50657	47547
0	56468	50657	47537
0	56474	50657	47527
0	56480	50657	47517
0	56486	50657	47507
0	56492	50657	47497
0	56498	50657	47487
0	56504	50657	47477
0	56510	50657	47467
0	56516	50657	47457
0	56522	50657	47447
0	56528	50657	47437
0	56534	50657	47427
0	56540	50657	47417
0	56546	50657	47407
0	56552	50657	47397
0	56558	50657	47387
0	56564	50657	47377
0	56570	50657	47367
0	56576	50657	47357
0	56582	50657	47347
0	56588	50657	47337
0	56594	50657	47327
0	56600	50657	47317
0	56606	50657	47307
0	56612	50657	47297
0	56618	50657	47287
0	56624	50657	47277
0	56630	50657	47267
0	56636	50657	47257
0	56642	50657	47247
0	56648	50657	47237
0	56654	50657	47227
0	56660	50657	47217
0	56666	50657	47207
0	56672	50657	47197
0	56678	50657	47187
0	56684	50657	47177
0	56690	50657	47167
0	56696	50657	47157
0	56702	50657	47147
0	56708	50657	47137
0	56714	50657	47127
0	56720	50657	47117
0	56726	50657	47107
0	56732	50657	47097
0	56738	50657	47087
0	56744	50657	47077
0	56750	50657	47067
0	56756	50657	47057
0	56762	50657	47047
0	56768	50657	47037
0	56774	50657	47027
0	56780	50657	47017
0	56786	50657	47007
0	56792	50657	46997
0	56798	50657	46987
0	56804	50657	46977
0	56810	50657	46967
0	56816	50657	46957
0	56822	50657	46947
0	56828	50657	46937
0	56834	50657	46927
0	56840	50657	46917
0	56846	50657	46907
0	56852	50657	46897
0	56858	50657	46887
0	56864	50657	46877
0	56870	50657	46867
0	56876	50657	46857
0	56882	50657	46847
0	56888	50657	46837
0	56894	50657	46827
0	56900	50657	46817
0	56906	50657	46807
0	56912	50657	46797
0	56918	50657	46787
0	56924	50657	46777
0	56930	50657	46767
0	56936	50657	46757
0	56942	50657	46747
0	56948	50657	46737
0	56954	50657	46727
0	56960	50657	46717
0	56966	50657	46707
0	56972	50657	46697
0	56978	50657	46687
0	56984	50657	46677
0	56990	50657	46667
0	56996	50657	46657
0	57002	50657	46647
0	57008	50657	46637
0	57014	50657	46627
0	57020	50657	46617
0	57026	50657	46607
0	57032	50657	46597
0	57038	50657	46587
0	57044	50657	46577
0	57050	50657	46567
0	57056	50657	46557
0	57062	50657	46547
0	57068	50657	46537
0	57074	50657	46527
0	57080	50657	46517
0	57086	50657	46507
0	57092	50657	46497
0	57098	50657	46487
0	57104	50657	46477
0	57110	50657	46467
0	57116	50657	46457
0	57122	50657	46447
0	57128	50657	46437
0	57134	50657	46427
0	57140	50657	46417
0	57146	50657	46407
0	57152	50657	46397
0	57158	50657	46387
0	57164	50657	46377
0	57170	50657	46367
0	57176	50657	46357
0	57182	50657	46347
0	57188	50657	46337
0	57194	50657	46327
0	57200	50657	46317
0	57206	50657	46307
0	57212	50657	46297
0	57218	50657	46287
0	57224	50657	46277
0	57230	50657	46267
0	57236	50657	46257
0	57242	50657	46247
0	57248	50657	46237
0	57254	50657	46227
0	57260	50657	46217
0	57266	50657	46207
0	57272	50657	46197
0	57278	50657	46187
0	57284	50657	46177
0	57290	50657	46167
0	57296	50657	46157
0	57302	50657	46147
0	57308	50657	46137
0	57314	50657	46127
0	57320	50657	46117
0	57326	50657	46107
0	57332	50657	46097
0	57338	50657	46087
0	57344	50657	46077
0	57350	50657	46067
0	57356	50657	46057
0	57362	50657	46047
0	57368	50657	46037
0	57374	50657	46027
0	57380	50657	46017
0	57386	50657	46007
0	57392	50657	45997
0	57398	50657	45987
0	57404	50657	45977
0	57410	50657	45967
0	57416	50657	45957
0	57422	50657	45947
0	57428	50657	45937
0	57434	50657	45927
0	57440	50657	45917
0	57446	50657	45907
0	57452	50657	45897
0	57458	50657	45887
0	57464	50657	45877
0	57470	50657	45867
0	57476	50657	45857
0	57482	50657	45847
0	57488	50657	45837
0	57494	50657	45827
0	57500	50657	45817
0	57506	50657	45807
0	57512	50657	45797
0	57518	50657	45787
0	57524	50657	45777
0	57530	50657	45767
0	57536	50657	45757
0	57542	50657	45747
0	57548	50657	45737
0	57554	50657	45727
0	57560	50657	45717
0	57566	50657	45707
0	57572	50657	45697
0	57578	50657	45687
0	57584	50657	45677
0	57590	50657	45667
0	57596	50657	45657
0	57602	50657	45647
0	57608	50657	45637
0	57614	50657	45627
0	57620	50657	45617
0	57626	50657	45607
0	57632	50657	45597
0	57638	50657	45587
0	57644	50657	45577
0	57650	50657	45567
0	57656	50657	45557
0	57662	50657	45547
0	57668	50657	45537
0	57674	50657	45527
0	57680	50657	45517
0	57686	50657	45507
0	57692	50657	45497
0	57698	50657	45487
0	57704	50657	45477
0	57710	50657	45467
0	57716	50657	45457
0	57722	50657	45447
0	57728	50657	45437
0	57734	50657	45427
0	57740	50657	45417
0	57746	50657	45407
0	57752	50657	45397
0	57758	50657	45387
0	57764	50657	45377
0	57770	50657	45367
0	57776	50657	45357
0	57782	50657	45347
0	57788	50657	45337
0	57794	50657	45327
0	57800	50657	45317
0	57806	50657	45307
0	57812	50657	45297
0	57818	50657	45287
0	57824	50657	45277
0	57830	50657	45267
0	57836	50657	45257
0	57842	50657	45247
0	57848	50657	45237
0	57854	50657	45227
0	57860	50657	45217
0	57866	50657	45207
0	57872	50657	45197
0	57878	50657	45187
0	57884	50657	45177
0	57890	50657	45167
0	57896	50657	45157
0	57902	50657	45147
0	57908	50657	45137
0	57914	50657	45127
0	57920	50657	45117
0	57926	50657	45107
0	57932	50657	45097
0	57938	50657	45087
0	57944	50657	45077
0	57950	50657	45067
0	57956	50657	45057
0	57962	50657	45047
0	57968	50657	45037
0	57974	50657	45027
0	57980	50657	45017
0	57986	50657	45007
0	57992	50657	44997
0	57998	50657	44987
0	58004	50657	44977
0	58010	50657	44967
0	58016	50657	44957
0	58022	50657	44947
0	58028	50657	44937
0	58034	50657	44927
0	58040	50657	44917
0	58046	50657	44907
0	58052	50657	44897
0	58058	50657	44887
0	58064	50657	44877
0	58070	50657	44867
0	58076	50657	44857
0	58082	50657	44847
0	58088	50657	44837
0	58094	50657	44827
0	58100	50657	44817
0	58106	50657	44807
0	58112	50657	44797
0	58118	50657	44787
0	58124	50657	44777
0	58130	50657	44767
0	58136	50657	44757
0	58142	50657	44747
0	58148	50657	44737
0	58154	50657	44727
0	58160	50657	44717
0	58166	50657	44707
0	58172	50657	44697
0	58178	50657	44687
0	58184	50657	44677
0	58190	50657	44667
0	58196	50657	44657
0	58202	50657	44647
0	58208	50657	44637
0	58214	50657	44627
0	58220	50657	44617
0	58226	50657	44607
0	58232	50657	44597
0	58238	50657	44587
0	58244	50657	44577
0	58250	50657	44567
0	58256	50657	44557
0	58262	50657	44547
0	58268	50657	44537
0	58274	50657	44527
0	58280	50657	44517
0	58286	50657	44507
0	58292	50657	44497
0	58298	50657	44487
0	58304	50657	44477
0	58310	50657	44467
0	58316	50657	44457
0	58322	50657	44447
0	58328	50657	44437
0	58334	50657	44427
0	58340	50657	44417
0	58346	50657	44407
0	58352	50657	44397
0	58358	50657	44387
0	58364	50657	44377
0	58370	50657	44367
0	58376	50657	44357
0	58382	50657	44347
0	58388	50657	44337
0	58394	50657	44327
0	58400	50657	44317
0	58406	50657	44307
0	58412	50657	44297
0	58418	50657	44287
0	58424	50657	44277
0	58430	50657	44267
0	58436	50657	44257
0	58442	50657	44247
0	58448	50657	44237
0	58454	50657	44227
0	58460	50657	44217
0	58466	50657	44207
0	58472	50657	44197
0	58478	50657	44187
0	58484	50657	44177
0	58490	50657	44167
0	58496	50657	44157
0	58502	50657	44147
0	58508	50657	44137
0	58514	50657	44127
0	58520	50657	44117
0	58526	50657	44107
0	58532	50657	44097
0	58538	50657	44087
0	58544	50657	44077
0	58550	50657	44067
0	58556	50657	44057
0	58562	50657	44047
0	58568	50657	44037
0	58574	50657	44027
0	58580	50657	44017
0	58586	50657	44007
0	58592	50657	43997
0	58598	50657	43987
0	58604	50657	43977
0	58610	50657	43967
0	58616	50657	43957
0	58622	50657	43947
0	58628	50657	43937
0	58634	50657	43927
0	58640	50657	43917
0	58646	50657	43907
0	58652	50657	43897
0	58658	50657	43887
0	58664	50657	43877
0	58670	50657	43867
0	58676	50657	43857
0	58682	50657	43847
0	58688	50657	43837
0	58694	50657	43827
0	58700	50657	43817
0	58706	50657	43807
0	58712	50657	43797
0	58718	50657	43787
0	58724	50657	43777
0	58730	50657	43767
0	58736	50657	43757
0	58742	50657	43747
0	58748	50657	43737
0	58754	50657	43727
0	58760	50657	43717
0	58766	50657	43707
0	58772	50657	43697
0	58778	50657	43687
0	58784	50657	43677
0	58790	50657	43667
0	58796	50657	43657
0	58802	50657	43647
0	58808	50657	43637
0	58814	50657	43627
0	58820	50657	43617
0	58826	50657	43607
0	58832	50657	43597
0	58838	50657	43587
0	58844	50657	43577
0	58850	50657	43567
0	58856	50657	43557
0	58862	50657	43547
0	58868	50657	43537
0	58874	50657	43527
0	58880	50657	43517
0	58886	50657	43507
0	58892	50657	43497
0	58898	50657	43487
0	58904	50657	43477
0	58910	50657	43467
0	58916	50657	43457
0	58922	50657	43447
0	58928	50657	43437
0	58934	50657	43427
0	58940	50657	43417
0	58946	50657	43407
0	58952	50657	43397
0	58958	50657	43387
0	58964	50657	43377
0	58970	50657	43367
0	58976	50657	43357
0	58982	50657	43347
0	58988	50657	43337
0	58994	50657	43327
0	59000	50657	43317
0	59006	50657	43307
0	59012	50657	43297
0	59018	50657	43287
0	59024	50657	43277
0	59030	50657	43267
0	59036	50657	43257
0	59042	50657	43247
0	59048	50657	43237
0	59054	50657	43227
0	59060	50657	43217
0	59066	50657	43207
0	59072	50657	43197
0	59078	50657	43187
0	59084	50657	43177
0	59090	50657	43167
0	59096	50657	43157
0	59102	50657	43147
0	59108	50657	43137
0	59114	50657	43127
0	59120	50657	43117
0	59126	50657	43107
0	59132	50657	43097
0	59138	50657	43087
0	59144	50657	43077
0	59150	50657	43067
0	59156	50657	43057
0	59162	50657	43047
0	59168	50657	43037
0	59174	50657	43027
0	59180	50657	43017
0	59186	50657	43007
0	59192	50657	42997
0	59198	50657	42987
0	59204	50657	42977
0	59210	50657	42967
0	59216	50657	42957
0	59222	50657	42947
0	59228	50657	42937
0	59234	50657	42927
0	59240	50657	42917
0	59246	50657	42907
0	59252	50657	42897
0	59258	50657	42887
0	59264	50657	42877
0	59270	50657	42867
0	59276	50657	42857
0	59282	50657	42847
0	59288	50657	42837
0	59294	50657	42827
0	59300	50657	42817
0	59306	50657	42807
0	59312	50657	42797
0	59318	50657	42787
0	59324	50657	42777
0	59330	50657	42767
0	59336	50657	42757
0	59342	50657	42747
0	59348	50657	42737
0	59354	50657	42727
0	59360	50657	42717
0	59366	50657	42707
0	59372	50657	42697
0	59378	50657	42687
0	59384	50657	42677
0	59390	50657	42667
0	59396	50657	42657
0	59402	50657	42647
0	59408	50657	42637
0	59414	50657	42627
0	59420	50657	42617
0	59426	50657	42607
0	59432	50657	42597
0	59438	50657	42587
0	59444	50657	42577
0	59450	50657	42567
0	59456	50657	42557
0	59462	50657	42547
0	59468	50657	42537
0	59474	50657	42527
0	59480	50657	42517
0	59486	50657	42507
0	59492	50657	42497
0	59498	50657	42487
0	59504	50657	42477
0	59510	50657	42467
0	59516	50657	42457
0	59522	50657	42447
0	59528	50657	42437
0	59534	50657	42427
0	59540	50657	42417
0	59546	50657	42407
0	59552	50657	42397
0	59558	50657	42387
0	59564	50657	42377
0	59570	50657	42367
0	59576	50657	42357
0	59582	50657	42347
0	59588	50657	42337
0	59594	50657	42327
0	59600	50657	42317
0	59606	50657	42307
0	59612	50657	42297
0	59618	50657	42287
0	59624	50657	42277
0	59630	50657	42267
0	59636	50657	42257
0	59642	50657	42247
0	59648	50657	42237
0	59654	50657	42227
0	59660	50657	42217
0	59666	50657	42207
0	59672	50657	42197
0	59678	50657	42187
0	59684	50657	42177
0	59690	50657	42167
0	59696	50657	42157
0	59702	50657	42147
0	59708	50657	42137
0	59714	50657	42127
0	59720	50657	42117
0	59726	50657	42107
0	59732	50657	42097
0	59738	50657	42087
0	59744	50657	42077
0	59750	50657	42067
0	59756	50657	42057
0	59762	50657	42047
0	59768	50657	42037
0	59774	50657	42027
0	59780	50657	42017
0	59786	50657	42007
0	59792	50657	41997
0	59798	50657	41987
0	59804	50657	41977
0	59810	50657	41967
0	59816	50657	41957
0	59822	50657	41947
0	59828	50657	41937
0	59834	50657	41927
0	59840	50657	41917
0	59846	50657	41907
0	59852	50657	41897
0	59858	50657	41887
0	59864	50657	41877
0	59870	50657	41867
0	59876	50657	41857
0	59882	50657	41847
0	59888	50657	41837
0	59894	50657	41827
0	59900	50657	41817
0	59906	50657	41807
0	59912	50657	41797
0	59918	50657	41787
0	59924	50657	41777
0	59930	50657	41767
0	59936	50657	41757
0	59942	50657	41747
0	59948	50657	41737
0	59954	50657	41727
0	59960	50657	41717
0	59966	50657	41707
0	59972	50657	41697
0	59978	50657	41687
0	59984	50657	41677
0	59990	50657	41667
0	59996	50657	41657
0	60002	50657	41647
0	60008	50657	41637
0	60014	50657	41627
0	60020	50657	41617
0	60026	50657	41607
0	60032	50657	41597
0	60038	50657	41587
0	60044	50657	41577
0	60050	50657	41567
0	60056	50657	41557
0	60062	50657	41547
0	60068	50657	41537
0	60074	50657	41527
0	60080	50657	41517
0	60086	50657	41507
0	60092	50657	41497
0	60098	50657	41487
0	60104	50657	41477
0	60110	50657	41467
0	60116	50657	41457
0	60122	50657	41447
0	60128	50657	41437
0	60134	50657	41427
0	60140	50657	41417
0	60146	50657	41407
0	60152	50657	41397
0	60158	50657	41387
0	60164	50657	41377
0	60170	50657	41367
0	60176	50657	41357
0	60182	50657	41347
0	60188	50657	41337
0	60194	50657	41327
0	60200	50657	41317
0	60206	50657	41307
0	60212	50657	41297
0	60218	50657	41287
0	60224	50657	41277
0	60230	50657	41267
0	60236	50657	41257
0	60242	50657	41247
0	60248	50657	41237
0	60254	50657	41227
0	60260	50657	41217
0	60266	50657	41207
0	60272	50657	41197
0	60278	50657	41187
0	60284	50657	41177
0	60290	50657	41167
0	60296	50657	41157
0	60302	50657	41147
0	60308	50657	41137
0	60314	50657	41127
0	60320	50657	41117
0	60326	50657	41107
0	60332	50657	41097
0	60338	50657	41087
0	60344	50657	41077
0	60350	50657	41067
0	60356	50657	41057
0	60362	50657	41047
0	60368	50657	41037
0	60374	50657	41027
0	60380	50657	41017
0	60386	50657	41007
0	60392	50657	40997
0	60398	50657	40987
0	60404	50657	40977
0	60410	50657	40967
0	60416	50657	40957
0	60422	50657	40947
0	60428	50657	40937
0	60434	50657	40927
0	60440	50657	40917
0	60446	50657	40907
0	60452	50657	40897
0	60458	50657	40887
0	60464	50657	40877
0	60470	50657	40867
0	60476	50657	40857
0	60482	50657	40847
0	60488	50657	40837
0	60494	50657	40827
0	60500	50657	40817
0	60506	50657	40807
0	60512	50657	40797
0	60518	50657	40787
0	60524	50657	40777
0	60530	50657	40767
0	60536	50657	40757
0	60542	50657	40747
0	60548	50657	40737
0	60554	50657	40727
0	60560	50657	40717
0	60566	50657	40707
0	60572	50657	40697
0	60578	50657	40687
0	60584	50657	40677
0	60590	50657	40667
0	60596	50657	40657
0	60602	50657	40647
0	60608	50657	40637
0	60614	50657	40627
0	60620	50657	40617
0	60626	50657	40607
0	60632	50657	40597
0	60638	50657	40587
0	60644	50657	40577
0	60650	50657	40567
0	60656	50657	40557
0	60662	50657	40547
0	60668	50657	40537
0	60674	50657	40527
0	60680	50657	40517
0	60686	50657	40507
0	60692	50657	40497
0	60698	50657	40487
0	60704	50657	40477
0	60710	50657	40467
0	60716	50657	40457
0	60722	50657	40447
0	60728	50657	40437
0	60734	50657	40427
0	60740	50657	40417
0	60746	50657	40407
0	60752	50657	40397
0	60758	50657	40387
0	60764	50657	40377
0	60770	50657	40367
0	60776	50657	40357
0	60782	50657	40347
0	60788	50657	40337
0	60794	50657	40327
0	60800	50657	40317
0	60806	50657	40307
0	60812	50657	40297
0	60818	50657	40287
0	60824	50657	40277
0	60830	50657	40267
0	60836	50657	40257
0	60842	50657	40247
0	60848	50657	40237
0	60854	50657	40227
0	60860	50657	40217
0	60866	50657	40207
0	60872	50657	40197
0	60878	50657	40187
0	60884	50657	40177
0	60890	50657	40167
0	60896	50657	40157
0	60902	50657	40147
0	60908	50657	40137
0	60914	50657	40127
0	60920	50657	40117
0	60926	50657	40107
0	60932	50657	40097
0	60938	50657	40087
0	60944	50657	40077
0	60950	50657	40067
0	60956	50657	40057
0	60962	50657	40047
0	60968	50657	40037
0	60974	50657	40027
0	60980	50657	40017
0	60986	50657	40007
0	60992	50657	39997
0	60998	50657	39987
0	61004	50657	39977
0	61010	50657	39967
0	61016	50657	39957
0	61022	50657	39947
0	61028	50657	39937
0	61034	50657	39927
0	61040	50657	39917
0	61046	50657	39907
0	61052	50657	39897
0	61058	50657	39887
0	61064	50657	39877
0	61070	50657	39867
0	61076	50657	39857
0	61082	50657	39847
0	61088	50657	39837
0	61094	50657	39827
0	61100	50657	39817
0	61106	50657	39807
0	61112	50657	39797
0	61118	50657	39787
0	61124	50657	39777
0	61130	50657	39767
0	61136	50657	39757
0	61142	50657	39747
0	61148	50657	39737
0	61154	50657	39727
0	61160	50657	39717
0	61166	50657	39707
0	61172	50657	39697
0	61178	50657	39687
0	61184	50657	39677
0	61190	50657	39667
0	61196	50657	39657
0	61202	50657	39647
0	61208	50657	39637
0	61214	50657	39627
0	61220	50657	39617
0	61226	50657	39607
0	61232	50657	39597
0	61238	50657	39587
0	61244	50657	39577
0	61250	50657	39567
0	61256	50657	39557
0	61262	50657	39547
0	61268	50657	39537
0	61274	50657	39527
0	61280	50657	39517
0	61286	50657	39507
0	61292	50657	39497
0	61298	50657	39487
0	61304	50657	39477
0	61310	50657	39467
0	61316	50657	39457
0	61322	50657	39447
0	61328	50657	39437
0	61334	50657	39427
0	61340	50657	39417
0	61346	50657	39407
0	61352	50657	39397
0	61358	50657	39387
0	61364	50657	39377
0	61370	50657	39367
0	61376	50657	39357
0	61382	50657	39347
0	61388	50657	39337
0	61394	50657	39327
0	61400	50657	39317
0	61406	50657	39307
0	61412	50657	39297
0	61418	50657	39287
0	61424	50657	39277
0	61430	50657	39267
0	61436	50657	39257
0	61442	50657	39247
0	61448	50657	39237
0	61454	50657	39227
0	61460	50657	39217
0	61466	50657	39207
0	61472	50657	39197
0	61478	50657	39187
0	61484	50657	39177
0	61490	50657	39167
0	61496	50657	39157
0	61502	50657	39147
0	61508	50657	39137
0	61514	50657	39127
0	61520	50657	39117
0	61526	50657	39107
0	61532	50657	39097
0	61538	50657	39087
0	61544	50657	39077
0	61550	50657	39067
0	61556	50657	39057
0	61562	50657	39047
0	61568	50657	39037
0	61574	50657	39027
0	61580	50657	39017
0	61586	50657	39007
0	61592	50657	38997
0	61598	50657	38987
0	61604	50657	38977
0	61610	50657	38967
0	61616	50657	38957
0	61622	50657	38947
0	61628	50657	38937
0	61634	50657	38927
0	61640	50657	38917
0	61646	50657	38907
0	61652	50657	38897
0	61658	50657	38887
0	61664	50657	38877
0	61670	50657	38867
0	61676	50657	38857
0	61682	50657	38847
0	61688	50657	38837
0	61694	50657	38827
0	61700	50657	38817
0	61706	50657	38807
0	61712	50657	38797
0	61718	50657	38787
0	61724	50657	38777
0	61730	50657	38767
0	61736	50657	38757
0	61742	50657	38747
0	61748	50657	38737
0	61754	50657	38727
0	61760	50657	38717
0	61766	50657	38707
0	61772	50657	38697
0	61778	50657	38687
0	61784	50657	38677
0	61790	50657	38667
0	61796	50657	38657
0	61802	50657	38647
0	61808	50657	38637
0	61814	50657	38627
0	61820	50657	38617
0	61826	50657	38607
0	61832	50657	38597
0	61838	50657	38587
0	61844	50657	38577
0	61850	50657	38567
0	61856	50657	38557
0	61862	50657	38547
0	61868	50657	38537
0	61874	50657	38527
0	61880	50657	38517
0	61886	50657	38507
0	61892	50657	38497
0	61898	50657	38487
0	61904	50657	38477
0	61910	50657	38467
0	61916	50657	38457
0	61922	50657	38447
0	61928	50657	38437
0	61934	50657	38427
0	61940	50657	38417
0	61946	50657	38407
0	61952	50657	38397
0	61958	50657	38387
0	61964	50657	38377
0	61970	50657	38367
0	61976	50657	38357
0	61982	50657	38347
0	61988	50657	38337
0	61994	50657	38327
0	62000	50657	38317
0	62006	50657	38307
0	62012	50657	38297
0	62018	50657	38287
0	62024	50657	38277
0	62030	50657	38267
0	62036	50657	38257
0	62042	50657	38247
0	62048	50657	38237
0	62054	50657	38227
0	62060	50657	38217
0	62066	50657	38207
0	62072	50657	38197
0	62078	50657	38187
0	62084	50657	38177
0	62090	50657	38167
0	62096	50657	38157
0	62102	50657	38147
0	62108	50657	38137
0	62114	50657	38127
0	62120	50657	38117
0	62126	50657	38107
0	62132	50657	38097
0	62138	50657	38087
0	62144	50657	38077
0	62150	50657	38067
0	62156	50657	38057
0	62162	50657	38047
0	62168	50657	38037
0	62174	50657	38027
0	62180	50657	38017
0	62186	50657	38007
0	62192	50657	37997
0	62198	50657	37987
0	62204	50657	37977
0	62210	50657	37967
0	62216	50657	37957
0	62222	50657	37947
0	62228	50657	37937
0	62234	50657	37927
0	62240	50657	37917
0	62246	50657	37907
0	62252	50657	37897
0	62258	50657	37887
0	62264	50657	37877
0	62270	50657	37867
0	62276	50657	37857
0	62282	50657	37847
0	62288	50657	37837
0	62294	50657	37827
0	62300	50657	37817
0	62306	50657	37807
0	62312	50657	37797
0	62318	50657	37787
0	62324	50657	37777
0	62330	50657	37767
0	62336	50657	37757
0	62342	50657	37747
0	62348	50657	37737
0	62354	50657	37727
0	62360	50657	37717
0	62366	50657	37707
0	62372	50657	37697
0	62378	50657	37687
0	62384	50657	37677
0	62390	50657	37667
0	62396	50657	37657
0	62402	50657	37647
0	62408	50657	37637
0	62414	50657	37627
0	62420	50657	37617
0	62426	50657	37607
0	62432	50657	37597
0	62438	50657	37587
0	62444	50657	37577
0	62450	50657	37567
0	62456	50657	37557
0	62462	50657	37547
0	62468	50657	37537
0	62474	50657	37527
0	62480	50657	37517
0	62486	50657	37507
0	62492	50657	37497
0	62498	50657	37487
0	62504	50657	37477
0	62510	50657	37467
0	62516	50657	37457
0	62522	50657	37447
0	62528	50657	37437
0	62534	50657	37427
0	62540	50657	37417
0	62546	50657	37407
0	62552	50657	37397
0	62558	50657	37387
0	62564	50657	37377
0	62570	50657	37367
0	62576	50657	37357
0	62582	50657	37347
0	62588	50657	37337
0	62594	50657	37327
0	62600	50657	37317
0	62606	50657	37307
0	62612	50657	37297
0	62618	50657	37287
0	62624	50657	37277
0	62630	50657	37267
0	62636	50657	37257
0	62642	50657	37247
0	62648	50657	37237
0	62654	50657	37227
0	62660	50657	37217
0	62666	50657	37207
0	62672	50657	37197
0	62678	50657	37187
0	62684	50657	37177
0	62690	50657	37167
0	62696	50657	37157
0	62702	50657	37147
0	62708	50657	37137
0	62714	50657	37127
0	62720	50657	37117
0	62726	50657	37107
0	62732	50657	37097
0	62738	50657	37087
0	62744	50657	37077
0	62750	50657	37067
0	62756	50657	37057
0	62762	50657	37047
0	62768	50657	37037
0	62774	50657	37027
0	62780	50657	37017
0	62786	50657	37007
0	62792	50657	36997
0	62798	50657	36987
0	62804	50657	36977
0	62810	50657	36967
0	62816	50657	36957
0	62822	50657	36947
0	62828	50657	36937
0	62834	50657	36927
0	62840	50657	36917
0	62846	50657	36907
0	62852	50657	36897
0	62858	50657	36887
0	62864	50657	36877
0	62870	50657	36867
0	62876	50657	36857
0	62882	50657	36847
0	62888	50657	36837
0	62894	50657	36827
0	62900	50657	36817
0	62906	50657	36807
0	62912	50657	36797
0	62918	50657	36787
0	62924	50657	36777
0	62930	50657	36767
0	62936	50657	36757
0	62942	50657	36747
0	62948	50657	36737
0	62954	50657	36727
0	62960	50657	36717
0	62966	50657	36707
0	62972	50657	36697
0	62978	50657	36687
0	62984	50657	36677
0	62990	50657	36667
0	62996	50657	36657
0	63002	50657	36647
0	63008	50657	36637
0	63014	50657	36627
0	63020	50657	36617
0	63026	50657	36607
0	63032	50657	36597
0	63038	50657	36587
0	63044	50657	36577
0	63050	50657	36567
0	63056	50657	36557
0	63062	50657	36547
0	63068	50657	36537
0	63074	50657	36527
0	63080	50657	36517
0	63086	50657	36507
0	63092	50657	36497
0	63098	50657	36487
0	63104	50657	36477
0	63110	50657	36467
0	63116	50657	36457
0	63122	50657	36447
0	63128	50657	36437
0	63134	50657	36427
0	63140	50657	36417
0	63146	50657	36407
0	63152	50657	36397
0	63158	50657	36387
0	63164	50657	36377
0	63170	50657	36367
0	63176	50657	36357
0	63182	50657	36347
0	63188	50657	36337
0	63194	50657	36327
0	63200	50657	36317
0	63206	50657	36307
0	63212	50657	36297
0	63218	50657	36287
0	63224	50657	36277
0	63230	50657	36267
0	63236	50657	36257
0	63242	50657	36247
0	63248	50657	36237
0	63254	50657	36227
0	63260	50657	36217
0	63266	50657	36207
0	63272	50657	36197
0	63278	50657	36187
0	63284	50657	36177
0	63290	50657	36167
0	63296	50657	36157
0	63302	50657	36147
0	63308	50657	36137
0	63314	50657	36127
0	63320	50657	36117
0	63326	50657	36107
0	63332	50657	36097
0	63338	50657	36087
0	63344	50657	36077
0	63350	50657	36067
0	63356	50657	36057
0	63362	50657	36047
0	63368	50657	36037
0	63374	50657	36027
0	63380	50657	36017
0	63386	50657	36007
0	63392	50657	35997
0	63398	50657	35987
0	63404	50657	35977
0	63410	50657	35967
0	63416	50657	35957
0	63422	50657	35947
0	63428	50657	35937
0	63434	50657	35927
0	63440	50657	35917
0	63446	50657	35907
0	63452	50657	35897
0	63458	50657	35887
0	63464	50657	35877
0	63470	50657	35867
0	63476	50657	35857
0	63482	50657	35847
0	63488	50657	35837
0	63494	50657	35827
0	63500	50657	35817
0	63506	50657	35807
0	63512	50657	35797
0	63518	50657	35787
0	63524	50657	35777
0	63530	50657	35767
0	63536	50657	35757
0	63542	50657	35747
0	63548	50657	35737
0	63554	50657	35727
0	63560	50657	35717
0	63566	50657	35707
0	63572	50657	35697
0	63578	50657	35687
0	63584	50657	35677
0	63590	50657	35667
0	63596	50657	35657
0	63602	50657	35647
0	63608	50657	35637
0	63614	50657	35627
0	63620	50657	35617
0	63626	50657	35607
0	63632	50657	35597
0	63638	50657	35587
0	63644	50657	35577
0	63650	50657	35567
0	63656	50657	35557
0	63662	50657	35547
0	63668	50657	35537
0	63674	50657	35527
0	63680	50657	35517
0	63686	50657	35507
0	63692	50657	35497
0	63698	50657	35487
0	63704	50657	35477
0	63710	50657	35467
0	63716	50657	35457
0	63722	50657	35447
0	63728	50657	35437
0	63734	50657	35427
0	63740	50657	35417
0	63746	50657	35407
0	63752	50657	35397
0	63758	50657	35387
0	63764	50657	35377
0	63770	50657	35367
0	63776	50657	35357
0	63782	50657	35347
0	63788	50657	35337
0	63794	50657	35327
0	63800	50657	35317
0	63806	50657	35307
0	63812	50657	35297
0	63818	50657	35287
0	63824	50657	35277
0	63830	50657	35267
0	63836	50657	35257
0	63842	50657	35247
0	63848	50657	35237
0	63854	50657	35227
0	63860	50657	35217
0	63866	50657	35207
0	63872	50657	35197
0	63878	50657	35187
0	63884	50657	35177
0	63890	50657	35167
0	63896	50657	35157
0	63902	50657	35147
0	63908	50657	35137
0	63914	50657	35127
0	63920	50657	35117
0	63926	50657	35107
0	63932	50657	35097
0	63938	50657	35087
0	63944	50657	35077
0	63950	50657	35067
0	63956	50657	35057
0	63962	50657	35047
0	63968	50657	35037
0	63974	50657	35027
0	63980	50657	35017
0	63986	50657	35007
0	63992	50657	34997
0	63998	50657	34987
0	64004	50657	34977
0	64010	50657	34967
0	64016	50657	34957
0	64022	50657	34947
0	64028	50657	34937
0	64034	50657	34927
0	64040	50657	34917
0	64046	50657	34907
0	64052	50657	34897
0	64058	50657	34887
0	64064	50657	34877
0	64070	50657	34867
0	64076	50657	34857
0	64082	50657	34847
0	64088	50657	34837
0	64094	50657	34827
0	64100	50657	34817
0	64106	50657	34807
0	64112	50657	34797
0	64118	50657	34787
0	64124	50657	34777
0	64130	50657	34767
0	64136	50657	34757
0	64142	50657	34747
0	64148	50657	34737
0	64154	50657	34727
0	64160	50657	34717
0	64166	50657	34707
0	64172	50657	34697
0	64178	50657	34687
0	64184	50657	34677
0	64190	50657	34667
0	64196	50657	34657
0	64202	50657	34647
0	64208	50657	34637
0	64214	50657	34627
0	64220	50657	34617
0	64226	50657	34607
0	64232	50657	34597
0	64238	50657	34587
0	64244	50657	34577
0	64250	50657	34567
0	64256	50657	34557
0	64262	50657	34547
0	64268	50657	34537
0	64274	50657	34527
0	64280	50657	34517
0	64286	50657	34507
0	64292	50657	34497
0	64298	50657	34487
0	64304	50657	34477
0	64310	50657	34467
0	64316	50657	34457
0	64322	50657	34447
0	64328	50657	34437
0	64334	50657	34427
0	64340	50657	34417
0	64346	50657	34407
0	64352	50657	34397
0	64358	50657	34387
0	64364	50657	34377
0	64370	50657	34367
0	64376	50657	34357
0	64382	50657	34347
0	64388	50657	34337
0	64394	50657	34327
0	64400	50657	34317
0	64406	50657	34307
0	64412	50657	34297
0	64418	50657	34287
0	64424	50657	34277
0	64430	50657	34267
0	64436	50657	34257
0	64442	50657	34247
0	64448	50657	34237
0	64454	50657	34227
0	64460	50657	34217
0	64466	50657	34207
0	64472	50657	34197
0	64478	50657	34187
0	64484	50657	34177
0	64490	50657	34167
0	64496	50657	34157
0	64502	50657	34147
0	64508	50657	34137
0	64514	50657	34127
0	64520	50657	34117
0	64526	50657	34107
0	64532	50657	34097
0	64538	50657	34087
0	64544	50657	34077
0	64550	50657	34067
0	64556	50657	34057
0	64562	50657	34047
0	64568	50657	34037
0	64574	50657	34027
0	64580	50657	34017
0	64586	50657	34007
0	64592	50657	33997
0	64598	50657	33987
0	64604	50657	33977
0	64610	50657	33967
0	64616	50657	33957
0	64622	50657	33947
0	64628	50657	33937
0	64634	50657	33927
0	64640	50657	33917
0	64646	50657	33907
0	64652	50657	33897
0	64658	50657	33887
0	64664	50657	33877
0	64670	50657	33867
0	64676	50657	33857
0	64682	50657	33847
0	64688	50657	33837
0	64694	50657	33827
0	64700	50657	33817
0	64706	50657	33807
0	64712	50657	33797
0	64718	50657	33787
0	64724	50657	33777
0	64730	50657	33767
0	64736	50657	33757
0	64742	50657	33747
0	64748	50657	33737
0	64754	50657	33727
0	64760	50657	33717
0	64766	50657	33707
0	64772	50657	33697
0	64778	50657	33687
0	64784	50657	33677
0	64790	50657	33667
0	64796	50657	33657
0	64802	50657	33647
0	64808	50657	33637
0	64814	50657	33627
0	64820	50657	33617
0	64826	50657	33607
0	64832	50657	33597
0	64838	50657	33587
0	64844	50657	33577
0	64850	50657	33567
0	64856	50657	33557
0	64862	50657	33547
0	64868	50657	33537
0	64874	50657	33527
0	64880	50657	33517
0	64886	50657	33507
0	64892	50657	33497
0	64898	50657	33487
0	64904	50657	33477
0	64910	50657	33467
0	64916	50657	33457
0	64922	50657	33447
0	64928	50657	33437
0	64934	50657	33427
0	64940	50657	33417
0	64946	50657	33407
0	64952	50657	33397
0	64958	50657	33387
0	64964	50657	33377
0	64970	50657	33367
0	64976	50657	33357
0	64982	50657	33347
0	64988	50657	33337
0	64994	50657	33327
0	65000	50657	33317
0	65006	50657	33307
0	65012	50657	33297
0	65018	50657	33287
0	65024	50657	33277
0	65030	50657	33267
0	65036	50657	33257
0	65042	50657	33247
0	65048	50657	33237
0	65054	50657	33227
0	65060	50657	33217
0	65066	50657	33207
0	65072	50657	33197
0	65078	50657	33187
0	65084	50657	33177
0	65090	50657	33167
0	65096	50657	33157
0	65102	50657	33147
0	65108	50657	33137
0	65114	50657	33127
0	65120	50657	33117
0	65126	50657	33107
0	65132	50657	33097
0	65138	50657	33087
0	65144	50657	33077
0	65150	50657	33067
0	65156	50657	33057
0	65162	50657	33047
0	65168	50657	33037
0	65174	50657	33027
0	65180	50657	33017
0	65186	50657	33007
0	65192	50657	32997
0	65198	50657	32987
0	65204	50657	32977
0	65210	50657	32967
0	65216	50657	32957
0	65222	50657	32947
0	65228	50657	32937
0	65234	50657	32927
0	65240	50657	32917
0	65246	50657	32907
0	65252	50657	32897
0	65258	50657	32887
0	65264	50657	32877
0	65270	50657	32867
0	65276	50657	32857
0	65282	50657	32847
0	65288	50657	32837
0	65294	50657	32827
0	65300	50657	32817
0	65306	50657	32807
0	65312	50657	32797
0	65318	50657	32787
0	65324	50657	32777
0	65330	50657	32767
0	65336	50657	32757
0	65342	50657	32747
0	65348	50657	32737
0	65354	50657	32727
0	65360	50657	32717
0	65366	50657	32707
0	65372	50657	32697
0	65378	50657	32687
0	65384	50657	32677
0	65390	50657	32667
0	65396	50657	32657
0	65402	50657	32647
0	65408	50657	32637
0	65414	50657	32627
0	65420	50657	32617
0	65426	50657	32607
0	65432	50657	32597
0	65438	50657	32587
0	65444	50657	32577
0	65450	50657	32567
0	65456	50657	32557
0	65462	50657	32547
0	65468	50657	32537
0	65474	50657	32527
0	65480	50657	32517
0	65486	50657	32507
0	65492	50657	32497
0	65498	50657	32487
0	65504	50657	32477
0	65510	50657	32467
0	65516	50657	32457
0	65522	50657	32447
0	65528	50657	32437
0	65534	50657	32427
0	65540	50657	32417
0	65546	50657	32407
0	65552	50657	32397
0	65558	50657	32387
0	65564	50657	32377
0	65570	50657	32367
0	65576	50657	32357
0	65582	50657	32347
0	65588	50657	32337
0	65594	50657	32327
0	65600	50657	32317
0	65606	50657	32307
0	65612	50657	32297
0	65618	50657	32287
0	65624	50657	32277
0	65630	50657	32267
0	65636	50657	32257
0	65642	50657	32247
0	65648	50657	32237
0	65654	50657	32227
0	65660	50657	32217
0	65666	50657	32207
0	65672	50657	32197
0	65678	50657	32187
0	65684	50657	32177
0	65690	50657	32167
0	65696	50657	32157
0	65702	50657	32147
0	65708	50657	32137
0	65714	50657	32127
0	65720	50657	32117
0	65726	50657	32107
0	65732	50657	32097
0	65738	50657	32087
0	65744	50657	32077
0	65750	50657	32067
0	65756	50657	32057
0	65762	50657	32047
0	65768	50657	32037
0	65774	50657	32027
0	65780	50657	32017
0	65786	50657	32007
0	65792	50657	31997
0	65798	50657	31987
0	65804	50657	31977
0	65810	50657	31967
0	65816	50657	31957
0	65822	50657	31947
0	65828	50657	31937
0	65834	50657	31927
0	65840	50657	31917
0	65846	50657	31907
0	65852	50657	31897
0	65858	50657	31887
0	65864	50657	31877
0	65870	50657	31867
0	65876	50657	31857
0	65882	50657	31847
0	65888	50657	31837
0	65894	50657	31827
0	65900	50657	31817
0	65906	50657	31807
0	65912	50657	31797
0	65918	50657	31787
0	65924	50657	31777
0	65930	50657	31767
0	65936	50657	31757
0	65942	50657	31747
0	65948	50657	31737
0	65954	50657	31727
0	65960	50657	31717
0	65966	50657	31707
0	65972	50657	31697
0	65978	50657	31687
0	65984	50657	31677
0	65990	50657	31667
0	65996	50657	31657
0	66002	50657	31647
0	66008	50657	31637
0	66014	50657	31627
0	66020	50657	31617
0	66026	50657	31607
0	66032	50657	31597
0	66038	50657	31587
0	66044	50657	31577
0	66050	50657	31567
0	66056	50657	31557
0	66062	50657	31547
0	66068	50657	31537
0	66074	50657	31527
0	66080	50657	31517
0	66086	50657	31507
0	66092	50657	31497
0	66098	50657	31487
0	66104	50657	31477
0	66110	50657	31467
0	66116	50657	31457
0	66122	50657	31447
0	66128	50657	31437
0	66134	50657	31427
0	66140	50657	31417
0	66146	50657	31407
0	66152	50657	31397
0	66158	50657	31387
0	66164	50657	31377
0	66170	50657	31367
0	66176	50657	31357
0	66182	50657	31347
0	66188	50657	31337
0	66194	50657	31327
0	66200	50657	31317
0	66206	50657	31307
0	66212	50657	31297
0	66218	50657	31287
0	66224	50657	31277
0	66230	50657	31267
0	66236	50657	31257
0	66242	50657	31247
0	66248	50657	31237
0	66254	50657	31227
0	66260	50657	31217
0	66266	50657	31207
0	66272	50657	31197
0	66278	50657	31187
0	66284	50657	31177
0	66290	50657	31167
0	66296	50657	31157
0	66302	50657	31147
0	66308	50657	31137
0	66314	50657	31127
0	66320	50657	31117
0	66326	50657	31107
0	66332	50657	31097
0	66338	50657	31087
0	66344	50657	31077
0	66350	50657	31067
0	66356	50657	31057
0	66362	50657	31047
0	66368	50657	31037
0	66374	50657	31027
0	66380	50657	31017
0	66386	50657	31007
0	66392	50657	30997
0	66398	50657	30987
0	66404	50657	30977
0	66410	50657	30967
0	66416	50657	30957
0	66422	50657	30947
0	66428	50657	30937
0	66434	50657	30927
0	66440	50657	30917
0	66446	50657	30907
0	66452	50657	30897
0	66458	50657	30887
0	66464	50657	30877
0	66470	50657	30867
0	66476	50657	30857
0	66482	50657	30847
0	66488	50657	30837
0	66494	50657	30827
0	66500	50657	30817
0	66506	50657	30807
0	66512	50657	30797
0	66518	50657	30787
0	66524	50657	30777
0	66530	50657	30767
0	66536	50657	30757
0	66542	50657	30747
0	66548	50657	30737
0	66554	50657	30727
0	66560	50657	30717
0	66566	50657	30707
0	66572	50657	30697
0	66578	50657	30687
0	66584	50657	30677
0	66590	50657	30667
0	66596	50657	30657
0	66602	50657	30647
0	66608	50657	30637
0	66614	50657	30627
0	66620	50657	30617
0	66626	50657	30607
0	66632	50657	30597
0	66638	50657	30587
0	66644	50657	30577
0	66650	50657	30567
0	66656	50657	30557
0	66662	50657	30547
0	66668	50657	30537
0	66674	50657	30527
0	66680	50657	30517
0	66686	50657	30507
0	66692	50657	30497
0	66698	50657	30487
0	66704	50657	30477
0	66710	50657	30467
0	66716	50657	30457
0	66722	50657	30447
0	66728	50657	30437
0	66734	50657	30427
0	66740	50657	30417
0	66746	50657	30407
0	66752	50657	30397
0	66758	50657	30387
0	66764	50657	30377
0	66770	50657	30367
0	66776	50657	30357
0	66782	50657	30347
0	66788	50657	30337
0	66794	50657	30327
0	66800	50657	30317
0	66806	50657	30307
0	66812	50657	30297
0	66818	50657	30287
0	66824	50657	30277
0	66830	50657	30267
0	66836	50657	30257
0	66842	50657	30247
0	66848	50657	30237
0	66854	50657	30227
0	66860	50657	30217
0	66866	50657	30207
0	66872	50657	30197
0	66878	50657	30187
0	66884	50657	30177
0	66890	50657	30167
0	66896	50657	30157
0	66902	50657	30147
0	66908	50657	30137
0	66914	50657	30127
0	66920	50657	30117
0	66926	50657	30107
0	66932	50657	30097
0	66938	50657	30087
0	66944	50657	30077
0	66950	50657	30067
0	66956	50657	30057
0	66962	50657	30047
0	66968	50657	30037
0	66974	50657	30027
0	66980	50657	30017
0	66986	50657	30007
0	66992	50657	29997
0	66998	50657	29987
0	67004	50657	29977
0	67010	50657	29967
0	67016	50657	29957
0	67022	50657	29947
0	67028	50657	29937
0	67034	50657	29927
0	67040	50657	29917
0	67046	50657	29907
0	67052	50657	29897
0	67058	50657	29887
0	67064	50657	29877
0	67070	50657	29867
0	67076	50657	29857
0	67082	50657	29847
0	67088	50657	29837
0	67094	50657	29827
0	67100	50657	29817
0	67106	50657	29807
0	67112	50657	29797
0	67118	50657	29787
0	67124	50657	29777
0	67130	50657	29767
0	67136	50657	29757
0	67142	50657	29747
0	67148	50657	29737
0	67154	50657	29727
0	67160	50657	29717
0	67166	50657	29707
0	67172	50657	29697
0	67178	50657	29687
0	67184	50657	29677
0	67190	50657	29667
0	67196	50657	29657
0	67202	50657	29647
0	67208	50657	29637
0	67214	50657	29627
0	67220	50657	29617
0	67226	50657	29607
0	67232	50657	29597
0	67238	50657	29587
0	67244	50657	29577
0	67250	50657	29567
0	67256	50657	29557
0	67262	50657	29547
0	67268	50657	29537
0	67274	50657	29527
0	67280	50657	29517
0	67286	50657	29507
0	67292	50657	29497
0	67298	50657	29487
0	67304	50657	29477
0	67310	50657	29467
0	67316	50657	29457
0	67322	50657	29447
0	67328	50657	29437
0	67334	50657	29427
0	67340	50657	29417
0	67346	50657	29407
0	67352	50657	29397
0	67358	50657	29387
0	67364	50657	29377
0	67370	50657	29367
0	67376	50657	29357
0	67382	50657	29347
0	67388	50657	29337
0	67394	50657	29327
0	67400	50657	29317
0	67406	50657	29307
0	67412	50657	29297
0	67418	50657	29287
0	67424	50657	29277
0	67430	50657	29267
0	67436	50657	29257
0	67442	50657	29247
0	67448	50657	29237
0	67454	50657	29227
0	67460	50657	29217
0	67466	50657	29207
0	67472	50657	29197
0	67478	50657	29187
0	67484	50657	29177
0	67490	50657	29167
0	67496	50657	29157
0	67502	50657	29147
0	67508	50657	29137
0	67514	50657	29127
0	67520	50657	29117
0	67526	50657	29107
0	67532	50657	29097
0	67538	50657	29087
0	67544	50657	29077
0	67550	50657	29067
0	67556	50657	29057
0	67562	50657	29047
0	67568	50657	29037
0	67574	50657	29027
0	67580	50657	29017
0	67586	50657	29007
0	67592	50657	28997
0	67598	50657	28987
0	67604	50657	28977
0	67610	50657	28967
0	67616	50657	28957
0	67622	50657	28947
0	67628	50657	28937
0	67634	50657	28927
0	67640	50657	28917
0	67646	50657	28907
0	67652	50657	28897
0	67658	50657	28887
0	67664	50657	28877
0	67670	50657	28867
0	67676	50657	28857
0	67682	50657	28847
0	67688	50657	28837
0	67694	50657	28827
0	67700	50657	28817
0	67706	50657	28807
0	67712	50657	28797
0	67718	50657	28787
0	67724	50657	28777
0	67730	50657	28767
0	67736	50657	28757
0	67742	50657	28747
0	67748	50657	28737
0	67754	50657	28727
0	67760	50657	28717
0	67766	50657	28707
0	67772	50657	28697
0	67778	50657	28687
0	67784	50657	28677
0	67790	50657	28667
0	67796	50657	28657
0	67802	50657	28647
0	67808	50657	28637
0	67814	50657	28627
0	67820	50657	28617
0	67826	50657	28607
0	67832	50657	28597
0	67838	50657	28587
0	67844	50657	28577
0	67850	50657	28567
0	67856	50657	28557
0	67862	50657	28547
0	67868	50657	28537
0	67874	50657	28527
0	67880	50657	28517
0	67886	50657	28507
0	67892	50657	28497
0	67898	50657	28487
0	67904	50657	28477
0	67910	50657	28467
0	67916	50657	28457
0	67922	50657	28447
0	67928	50657	28437
0	67934	50657	28427
0	67940	50657	28417
0	67946	50657	28407
0	67952	50657	28397
0	67958	50657	28387
0	67964	50657	28377
0	67970	50657	28367
0	67976	50657	28357
0	67982	50657	28347
0	67988	50657	28337
0	67994	50657	28327
0	68000	50657	28317
0	68006	50657	28307
0	68012	50657	28297
0	68018	50657	28287
0	68024	50657	28277
0	68030	50657	28267
0	68036	50657	28257
0	68042	50657	28247
0	68048	50657	28237
0	68054	50657	28227
0	68060	50657	28217
0	68066	50657	28207
0	68072	50657	28197
0	68078	50657	28187
0	68084	50657	28177
0	68090	50657	28167
0	68096	50657	28157
0	68102	50657	28147
0	68108	50657	28137
0	68114	50657	28127
0	68120	50657	28117
0	68126	50657	28107
0	68132	50657	28097
0	68138	50657	28087
0	68144	50657	28077
0	68150	50657	28067
0	68156	50657	28057
0	68162	50657	28047
0	68168	50657	28037
0	68174	50657	28027
0	68180	50657	28017
0	68186	50657	28007
0	68192	50657	27997
0	68198	50657	27987
0	68204	50657	27977
0	68210	50657	27967
0	68216	50657	27957
0	68222	50657	27947
0	68228	50657	27937
0	68234	50657	27927
0	68240	50657	27917
0	68246	50657	27907
0	68252	50657	27897
0	68258	50657	27887
0	68264	50657	27877
0	68270	50657	27867
0	68276	50657	27857
0	68282	50657	27847
0	68288	50657	27837
0	68294	50657	27827
0	68300	50657	27817
0	68306	50657	27807
0	68312	50657	27797
0	68318	50657	27787
0	68324	50657	27777
0	68330	50657	27767
0	68336	50657	27757
0	68342	50657	27747
0	68348	50657	27737
0	68354	50657	27727
0	68360	50657	27717
0	68366	50657	27707
0	68372	50657	27697
0	68378	50657	27687
0	68384	50657	27677
0	68390	50657	27667
0	68396	50657	27657
0	68402	50657	27647
0	68408	50657	27637
0	68414	50657	27627
0	68420	50657	27617
0	68426	50657	27607
0	68432	50657	27597
0	68438	50657	27587
0	68444	50657	27577
0	68450	50657	27567
0	68456	50657	27557
0	68462	50657	27547
0	68468	50657	27537
0	68474	50657	27527
0	68480	50657	27517
0	68486	50657	27507
0	68492	50657	27497
0	68498	50657	27487
0	68504	50657	27477
0	68510	50657	27467
0	68516	50657	27457
0	68522	50657	27447
0	68528	50657	27437
0	68534	50657	27427
0	68540	50657	27417
0	68546	50657	27407
0	68552	50657	27397
0	68558	50657	27387
0	68564	50657	27377
0	68570	50657	27367
0	68576	50657	27357
0	68582	50657	27347
0	68588	50657	27337
0	68594	50657	27327
0	68600	50657	27317
0	68606	50657	27307
0	68612	50657	27297
0	68618	50657	27287
0	68624	50657	27277
0	68630	50657	27267
0	68636	50657	27257
0	68642	50657	27247
0	68648	50657	27237
0	68654	50657	27227
0	68660	50657	27217
0	68666	50657	27207
0	68672	50657	27197
0	68678	50657	27187
0	68684	50657	27177
0	68690	50657	27167
0	68696	50657	27157
0	68702	50657	27147
0	68708	50657	27137
0	68714	50657	27127
0	68720	50657	27117
0	68726	50657	27107
0	68732	50657	27097
0	68738	50657	27087
0	68744	50657	27077
0	68750	50657	27067
0	68756	50657	27057
0	68762	50657	27047
0	68768	50657	27037
0	68774	50657	27027
0	68780	50657	27017
0	68786	50657	27007
0	68792	50657	26997
0	68798	50657	26987
0	68804	50657	26977
0	68810	50657	26967
0	68816	50657	26957
0	68822	50657	26947
0	68828	50657	26937
0	68834	50657	26927
0	68840	50657	26917
0	68846	50657	26907
0	68852	50657	26897
0	68858	50657	26887
0	68864	50657	26877
0	68870	50657	26867
0	68876	50657	26857
0	68882	50657	26847
0	68888	50657	26837
0	68894	50657	26827
0	68900	50657	26817
0	68906	50657	26807
0	68912	50657	26797
0	68918	50657	26787
0	68924	50657	26777
0	68930	50657	26767
0	68936	50657	26757
0	68942	50657	26747
0	68948	50657	26737
0	68954	50657	26727
0	68960	50657	26717
0	68966	50657	26707
0	68972	50657	26697
0	68978	50657	26687
0	68984	50657	26677
0	68990	50657	26667
0	68996	50657	26657
0	69002	50657	26647
0	69008	50657	26637
0	69014	50657	26627
0	69020	50657	26617
0	69026	50657	26607
0	69032	50657	26597
0	69038	50657	26587
0	69044	50657	26577
0	69050	50657	26567
0	69056	50657	26557
0	69062	50657	26547
0	69068	50657	26537
0	69074	50657	26527
0	69080	50657	26517
0	69086	50657	26507
0	69092	50657	26497
0	69098	50657	26487
0	69104	50657	26477
0	69110	50657	26467
0	69116	50657	26457
0	69122	50657	26447
0	69128	50657	26437
0	69134	50657	26427
0	69140	50657	26417
0	69146	50657	26407
0	69152	50657	26397
0	69158	50657	26387
0	69164	50657	26377
0	69170	50657	26367
0	69176	50657	26357
0	69182	50657	26347
0	69188	50657	26337
0	69194	50657	26327
0	69200	50657	26317
0	69206	50657	26307
0	69212	50657	26297
0	69218	50657	26287
0	69224	50657	26277
0	69230	50657	26267
0	69236	50657	26257
0	69242	50657	26247
0	69248	50657	26237
0	69254	50657	26227
0	69260	50657	26217
0	69266	50657	26207
0	69272	50657	26197
0	69278	50657	26187
0	69284	50657	26177
0	69290	50657	26167
0	69296	50657	26157
0	69302	50657	26147
0	69308	50657	26137
0	69314	50657	26127
0	69320	50657	26117
0	69326	50657	26107
0	69332	50657	26097
0	69338	50657	26087
0	69344	50657	26077
0	69350	50657	26067
0	69356	50657	26057
0	69362	50657	26047
0	69368	50657	26037
0	69374	50657	26027
0	69380	50657	26017
0	69386	50657	26007
0	69392	50657	25997
0	69398	50657	25987
0	69404	50657	25977
0	69410	50657	25967
0	69416	50657	25957
0	69422	50657	25947
0	69428	50657	25937
0	69434	50657	25927
0	69440	50657	25917
0	69446	50657	25907
0	69452	50657	25897
0	69458	50657	25887
0	69464	50657	25877
0	69470	50657	25867
0	69476	50657	25857
0	69482	50657	25847
0	69488	50657	25837
0	69494	50657	25827
0	69500	50657	25817
0	69506	50657	25807
0	69512	50657	25797
0	69518	50657	25787
0	69524	50657	25777
0	69530	50657	25767
0	69536	50657	25757
0	69542	50657	25747
0	69548	50657	25737
0	69554	50657	25727
0	69560	50657	25717
0	69566	50657	25707
0	69572	50657	25697
0	69578	50657	25687
0	69584	50657	25677
0	69590	50657	25667
0	69596	50657	25657
0	69602	50657	25647
0	69608	50657	25637
0	69614	50657	25627
0	69620	50657	25617
0	69626	50657	25607
0	69632	50657	25597
0	69638	50657	25587
0	69644	50657	25577
0	69650	50657	25567
0	69656	50657	25557
0	69662	50657	25547
0	69668	50657	25537
0	69674	50657	25527
0	69680	50657	25517
0	69686	50657	25507
0	69692	50657	25497
0	69698	50657	25487
0	69704	50657	25477
0	69710	50657	25467
0	69716	50657	25457
0	69722	50657	25447
0	69728	50657	25437
0	69734	50657	25427
0	69740	50657	25417
0	69746	50657	25407
0	69752	50657	25397
0	69758	50657	25387
0	69764	50657	25377
0	69770	50657	25367
0	69776	50657	25357
0	69782	50657	25347
0	69788	50657	25337
0	69794	50657	25327
0	69800	50657	25317
0	69806	50657	25307
0	69812	50657	25297
0	69818	50657	25287
0	69824	50657	25277
0	69830	50657	25267
0	69836	50657	25257
0	69842	50657	25247
0	69848	50657	25237
0	69854	50657	25227
0	69860	50657	25217
0	69866	50657	25207
0	69872	50657	25197
0	69878	50657	25187
0	69884	50657	25177
0	69890	50657	25167
0	69896	50657	25157
0	69902	50657	25147
0	69908	50657	25137
0	69914	50657	25127
0	69920	50657	25117
0	69926	50657	25107
0	69932	50657	25097
0	69938	50657	25087
0	69944	50657	25077
0	69950	50657	25067
0	69956	50657	25057
0	69962	50657	25047
0	69968	50657	25037
0	69974	50657	25027
0	69980	50657	25017
0	69986	50657	25007
0	69992	50657	24997
0	69998	50657	24987
0	70004	50657	24977
0	70010	50657	24967
0	70016	50657	24957
0	70022	50657	24947
0	70028	50657	24937
0	70034	50657	24927
0	70040	50657	24917
0	70046	50657	24907
0	70052	50657	24897
0	70058	50657	24887
0	70064	50657	24877
0	70070	50657	24867
0	70076	50657	24857
0	70082	50657	24847
0	70088	50657	24837
0	70094	50657	24827
0	70100	50657	24817
0	70106	50657	24807
0	70112	50657	24797
0	70118	50657	24787
0	70124	50657	24777
0	70130	50657	24767
0	70136	50657	24757
0	70142	50657	24747
0	70148	50657	24737
0	70154	50657	24727
0	70160	50657	24717
0	70166	50657	24707
0	70172	50657	24697
0	70178	50657	24687
0	70184	50657	24677
0	70190	50657	24667
0	70196	50657	24657
0	70202	50657	24647
0	70208	50657	24637
0	70214	50657	24627
0	70220	50657	24617
0	70226	50657	24607
0	70232	50657	24597
0	70238	50657	24587
0	70244	50657	24577
0	70250	50657	24567
0	70256	50657	24557
0	70262	50657	24547
0	70268	50657	24537
0	70274	50657	24527
0	70280	50657	24517
0	70286	50657	24507
0	70292	50657	24497
0	70298	50657	24487
0	70304	50657	24477
0	70310	50657	24467
0	70316	50657	24457
0	70322	50657	24447
0	70328	50657	24437
0	70334	50657	24427
0	70340	50657	24417
0	70346	50657	24407
0	70352	50657	24397
0	70358	50657	24387
0	70364	50657	24377
0	70370	50657	24367
0	70376	50657	24357
0	70382	50657	24347
0	70388	50657	24337
0	70394	50657	24327
0	70400	50657	24317
0	70406	50657	24307
0	70412	50657	24297
0	70418	50657	24287
0	70424	50657	24277
0	70430	50657	24267
0	70436	50657	24257
0	70442	50657	24247
0	70448	50657	24237
0	70454	50657	24227
0	70460	50657	24217
0	70466	50657	24207
0	70472	50657	24197
0	70478	50657	24187
0	70484	50657	24177
0	70490	50657	24167
0	70496	50657	24157
0	70502	50657	24147
0	70508	50657	24137
0	70514	50657	24127
0	70520	50657	24117
0	70526	50657	24107
0	70532	50657	24097
0	70538	50657	24087
0	70544	50657	24077
0	70550	50657	24067
0	70556	50657	24057
0	70562	50657	24047
0	70568	50657	24037
0	70574	50657	24027
0	70580	50657	24017
0	70586	50657	24007
0	70592	50657	23997
0	70598	50657	23987
0	70604	50657	23977
0	70610	50657	23967
0	70616	50657	23957
0	70622	50657	23947
0	70628	50657	23937
0	70634	50657	23927
0	70640	50657	23917
0	70646	50657	23907
0	70652	50657	23897
0	70658	50657	23887
0	70664	50657	23877
0	70670	50657	23867
0	70676	50657	23857
0	70682	50657	23847
0	70688	50657	23837
0	70694	50657	23827
0	70700	50657	23817
0	70706	50657	23807
0	70712	50657	23797
0	70718	50657	23787
0	70724	50657	23777
0	70730	50657	23767
0	70736	50657	23757
0	70742	50657	23747
0	70748	50657	23737
0	70754	50657	23727
0	70760	50657	23717
0	70766	50657	23707
0	70772	50657	23697
0	70778	50657	23687
0	70784	50657	23677
0	70790	50657	23667
0	70796	50657	23657
0	70802	50657	23647
0	70808	50657	23637
0	70814	50657	23627
0	70820	50657	23617
0	70826	50657	23607
0	70832	50657	23597
0	70838	50657	23587
0	70844	50657	23577
0	70850	50657	23567
0	70856	50657	23557
0	70862	50657	23547
0	70868	50657	23537
0	70874	50657	23527
0	70880	50657	23517
0	70886	50657	23507
0	70892	50657	23497
0	70898	50657	23487
0	70904	50657	23477
0	70910	50657	23467
0	70916	50657	23457
0	70922	50657	23447
0	70928	50657	23437
0	70934	50657	23427
0	70940	50657	23417
0	70946	50657	23407
0	70952	50657	23397
0	70958	50657	23387
0	70964	50657	23377
0	70970	50657	23367
0	70976	50657	23357
0	70982	50657	23347
0	70988	50657	23337
0	70994	50657	23327
0	71000	50657	23317
0	71006	50657	23307
0	71012	50657	23297
0	71018	50657	23287
0	71024	50657	23277
0	71030	50657	23267
0	71036	50657	23257
0	71042	50657	23247
0	71048	50657	23237
0	71054	50657	23227
0	71060	50657	23217
0	71066	50657	23207
0	71072	50657	23197
0	71078	50657	23187
0	71084	50657	23177
0	71090	50657	23167
0	71096	50657	23157
0	71102	50657	23147
0	71108	50657	23137
0	71114	50657	23127
0	71120	50657	23117
0	71126	50657	23107
0	71132	50657	23097
0	71138	50657	23087
0	71144	50657	23077
0	71150	50657	23067
0	71156	50657	23057
0	71162	50657	23047
0	71168	50657	23037
0	71174	50657	23027
0	71180	50657	23017
0	71186	50657	23007
0	71192	50657	22997
0	71198	50657	22987
0	71204	50657	22977
0	71210	50657	22967
0	71216	50657	22957
0	71222	50657	22947
0	71228	50657	22937
0	71234	50657	22927
0	71240	50657	22917
0	71246	50657	22907
0	71252	50657	22897
0	71258	50657	22887
0	71264	50657	22877
0	71270	50657	22867
0	71276	50657	22857
0	71282	50657	22847
0	71288	50657	22837
0	71294	50657	22827
0	71300	50657	22817
0	71306	50657	22807
0	71312	50657	22797
0	71318	50657	22787
0	71324	50657	22777
0	71330	50657	22767
0	71336	50657	22757
0	71342	50657	22747
0	71348	50657	22737
0	71354	50657	22727
0	71360	50657	22717
0	71366	50657	22707
0	71372	50657	22697
0	71378	50657	22687
0	71384	50657	22677
0	71390	50657	22667
0	71396	50657	22657
0	71402	50657	22647
0	71408	50657	22637
0	71414	50657	22627
0	71420	50657	22617
0	71426	50657	22607
0	71432	50657	22597
0	71438	50657	22587
0	71444	50657	22577
0	71450	50657	22567
0	71456	50657	22557
0	71462	50657	22547
0	71468	50657	22537
0	71474	50657	22527
0	71480	50657	22517
0	71486	50657	22507
0	71492	50657	22497
0	71498	50657	22487
0	71504	50657	22477
0	71510	50657	22467
0	71516	50657	22457
0	71522	50657	22447
0	71528	50657	22437
0	71534	50657	22427
0	71540	50657	22417
0	71546	50657	22407
0	71552	50657	22397
0	71558	50657	22387
0	71564	50657	22377
0	71570	50657	22367
0	71576	50657	22357
0	71582	50657	22347
0	71588	50657	22337
0	71594	50657	22327
0	71600	50657	22317
0	71606	50657	22307
0	71612	50657	22297
0	71618	50657	22287
0	71624	50657	22277
0	71630	50657	22267
0	71636	50657	22257
0	71642	50657	22247
0	71648	50657	22237
0	71654	50657	22227
0	71660	50657	22217
0	71666	50657	22207
0	71672	50657	22197
0	71678	50657	22187
0	71684	50657	22177
0	71690	50657	22167
0	71696	50657	22157
0	71702	50657	22147
0	71708	50657	22137
0	71714	50657	22127
0	71720	50657	22117
0	71726	50657	22107
0	71732	50657	22097
0	71738	50657	22087
0	71744	50657	22077
0	71750	50657	22067
0	71756	50657	22057
0	71762	50657	22047
0	71768	50657	22037
0	71774	50657	22027
0	71780	50657	22017
0	71786	50657	22007
0	71792	50657	21997
0	71798	50657	21987
0	71804	50657	21977
0	71810	50657	21967
0	71816	50657	21957
0	71822	50657	21947
0	71828	50657	21937
0	71834	50657	21927
0	71840	50657	21917
0	71846	50657	21907
0	71852	50657	21897
0	71858	50657	21887
0	71864	50657	21877
0	71870	50657	21867
0	71876	50657	21857
0	71882	50657	21847
0	71888	50657	21837
0	71894	50657	21827
0	71900	50657	21817
0	71906	50657	21807
0	71912	50657	21797
0	71918	50657	21787
0	71924	50657	21777
0	71930	50657	21767
0	71936	50657	21757
0	71942	50657	21747
0	71948	50657	21737
0	71954	50657	21727
0	71960	50657	21717
0	71966	50657	21707
0	71972	50657	21697
0	71978	50657	21687
0	71984	50657	21677
0	71990	50657	21667
0	71996	50657	21657
0	72002	50657	21647
0	72008	50657	21637
0	72014	50657	21627
0	72020	50657	21617
0	72026	50657	21607
0	72032	50657	21597
0	72038	50657	21587
0	72044	50657	21577
0	72050	50657	21567
0	72056	50657	21557
0	72062	50657	21547
0	72068	50657	21537
0	72074	50657	21527
0	72080	50657	21517
0	72086	50657	21507
0	72092	50657	21497
0	72098	50657	21487
0	72104	50657	21477
0	72110	50657	21467
0	72116	50657	21457
0	72122	50657	21447
0	72128	50657	21437
0	72134	50657	21427
0	72140	50657	21417
0	72146	50657	21407
0	72152	50657	21397
0	72158	50657	21387
0	72164	50657	21377
0	72170	50657	21367
0	72176	50657	21357
0	72182	50657	21347
0	72188	50657	21337
0	72194	50657	21327
0	72200	50657	21317
0	72206	50657	21307
0	72212	50657	21297
0	72218	50657	21287
0	122077	70454	41074
0	122083	70454	41064
0	122089	70454	41054
0	122095	70454	41044
0	122101	70454	41034
0	122107	70454	41024
0	122113	70454	41014
0	122119	70454	41004
0	122125	70454	40994
0	122131	70454	40984
0	122137	70454	40974
0	122143	70454	40964
0	122149	70454	40954
0	122155	70454	40944
0	122161	70454	40934
0	122167	70454	40924
0	122173	70454	40914
0	122179	70454	40904
0	122185	70454	40894
0	122191	70454	40884
0	122197	70454	40874
0	122203	70454	40864
0	122209	70454	40854
0	122215	70454	40844
0	122221	70454	40834
0	122227	70454	40824
0	122233	70454	40814
0	122239	70454	40804
0	122245	70454	40794
0	122251	70454	40784
0	122257	70454	40774
0	122263	70454	40764
0	122269	70454	40754
0	122275	70454	40744
0	122281	70454	40734
0	122287	70454	40724
0	122293	70454	40714
0	122299	70454	40704
0	122305	70454	40694
0	122311	70454	40684
0	122317	70454	40674
0	122323	70454	40664
0	122329	70454	40654
0	122335	70454	40644
0	122341	70454	40634
0	122347	70454	40624
0	122353	70454	40614
0	122359	70454	40604
0	122365	70454	40594
0	122371	70454	40584
0	122377	70454	40574
0	122383	70454	40564
0	122389	70454	40554
0	122395	70454	40544
0	122401	70454	40534
0	122407	70454	40524
0	122413	70454	40514
0	122419	70454	40504
0	122425	70454	40494
0	122431	70454	40484
0	122437	70454	40474
0	122443	70454	40464
0	122449	70454	40454
0	122455	70454	40444
0	122461	70454	40434
0	122467	70454	40424
0	122473	70454	40414
0	122479	70454	40404
0	122485	70454	40394
0	122491	70454	40384
0	122497	70454	40374
0	122503	70454	40364
0	122509	70454	40354
0	122515	70454	40344
0	122521	70454	40334
0	122527	70454	40324
0	122533	70454	40314
0	122539	70454	40304
0	122545	70454	40294
0	122551	70454	40284
0	122557	70454	40274
0	122563	70454	40264
0	122569	70454	40254
0	122575	70454	40244
0	122581	70454	40234
0	122587	70454	40224
0	122593	70454	40214
0	122599	70454	40204
0	122605	70454	40194
0	122611	70454	40184
0	122617	70454	40174
0	122623	70454	40164
0	122629	70454	40154
0	122635	70454	40144
0	122641	70454	40134
0	122647	70454	40124
0	122653	70454	40114
0	122659	70454	40104
0	122665	70454	40094
0	122671	70454	40084
0	122677	70454	40074
0	122683	70454	40064
0	122689	70454	40054
0	122695	70454	40044
0	122701	70454	40034
0	122707	70454	40024
0	122713	70454	40014
0	122719	70454	40004
0	122725	70454	39994
0	122731	70454	39984
0	122737	70454	39974
0	122743	70454	39964
0	122749	70454	39954
0	122755	70454	39944
0	122761	70454	39934
0	122767	70454	39924
0	122773	70454	39914
0	122779	70454	39904
0	122785	70454	39894
0	122791	70454	39884
0	122797	70454	39874
0	122803	70454	39864
0	122809	70454	39854
0	122815	70454	39844
0	122821	70454	39834
0	122827	70454	39824
0	122833	70454	39814
0	122839	70454	39804
0	122845	70454	39794
0	122851	70454	39784
0	122857	70454	39774
0	122863	70454	39764
0	122869	70454	39754
0	122875	70454	39744
0	122881	70454	39734
0	122887	70454	39724
0	122893	70454	39714
0	122899	70454	39704
0	122905	70454	39694
0	122911	70454	39684
0	122917	70454	39674
0	122923	70454	39664
0	122929	70454	39654
0	122935	70454	39644
0	122941	70454	39634
0	122947	70454	39624
0	122953	70454	39614
0	122959	70454	39604
0	122965	70454	39594
0	122971	70454	39584
0	122977	70454	39574
0	122983	70454	39564
0	122989	70454	39554
0	122995	70454	39544
0	123001	70454	39534
0	123007	70454	39524
0	123013	70454	39514
0	123019	70454	39504
0	123025	70454	39494
0	123031	70454	39484
0	123037	70454	39474
0	123043	70454	39464
0	123049	70454	39454
0	123055	70454	39444
0	123061	70454	39434
0	123067	70454	39424
0	123073	70454	39414
0	123079	70454	39404
0	123085	70454	39394
0	123091	70454	39384
0	123097	70454	39374
0	123103	70454	39364
0	123109	70454	39354
0	123115	70454	39344
0	123121	70454	39334
0	123127	70454	39324
0	123133	70454	39314
0	123139	70454	39304
0	123145	70454	39294
0	123151	70454	39284
0	123157	70454	39274
0	123163	70454	39264
0	123169	70454	39254
0	123175	70454	39244
0	123181	70454	39234
0	123187	70454	39224
0	123193	70454	39214
0	123199	70454	39204
0	123205	70454	39194
0	123211	70454	39184
0	123217	70454	39174
0	123223	70454	39164
0	123229	70454	39154
0	123235	70454	39144
0	123241	70454	39134
0	123247	70454	39124
0	123253	70454	39114
0	123259	70454	39104
0	123265	70454	39094
0	123271	70454	39084
0	123277	70454	39074
0	123283	70454	39064
0	123289	70454	39054
0	123295	70454	39044
0	123301	70454	39034
0	123307	70454	39024
0	123313	70454	39014
0	123319	70454	39004
0	123325	70454	38994
0	123331	70454	38984
0	123337	70454	38974
0	123343	70454	38964
0	123349	70454	38954
0	123355	70454	38944
0	123361	70454	38934
0	123367	70454	38924
0	123373	70454	38914
0	123379	70454	38904
0	123385	70454	38894
0	123391	70454	38884
0	123397	70454	38874
0	123403	70454	38864
0	123409	70454	38854
0	123415	70454	38844
0	123421	70454	38834
0	123427	70454	38824
0	123433	70454	38814
0	123439	70454	38804
0	123445	70454	38794
0	123451	70454	38784
0	123457	70454	38774
0	123463	70454	38764
0	123469	70454	38754
0	123475	70454	38744
0	123481	70454	38734
0	123487	70454	38724
0	123493	70454	38714
0	123499	70454	38704
0	123505	70454	38694
0	123511	70454	38684
0	123517	70454	38674
0	123523	70454	38664
0	123529	70454	38654
0	123535	70454	38644
0	123541	70454	38634
0	123547	70454	38624
0	123553	70454	38614
0	123559	70454	38604
0	123565	70454	38594
0	123571	70454	38584
0	123577	70454	38574
0	123583	70454	38564
0	123589	70454	38554
0	123595	70454	38544
0	123601	70454	38534
0	123607	70454	38524
0	123613	70454	38514
0	123619	70454	38504
0	123625	70454	38494
0	123631	70454	38484
0	123637	70454	38474
0	123643	70454	38464
0	123649	70454	38454
0	123655	70454	38444
0	123661	70454	38434
0	123667	70454	38424
0	123673	70454	38414
0	123679	70454	38404
0	123685	70454	38394
0	123691	70454	38384
0	123697	70454	38374
0	123703	70454	38364
0	123709	70454	38354
0	123715	70454	38344
0	123721	70454	38334
0	123727	70454	38324
0	123733	70454	38314
0	123739	70454	38304
0	123745	70454	38294
0	123751	70454	38284
0	123757	70454	38274
0	123763	70454	38264
0	123769	70454	38254
0	123775	70454	38244
0	123781	70454	38234
0	123787	70454	38224
0	123793	70454	38214
0	123799	70454	38204
0	123805	70454	38194
0	123811	70454	38184
0	123817	70454	38174
0	123823	70454	38164
0	123829	70454	38154
0	123835	70454	38144
0	123841	70454	38134
0	123847	70454	38124
0	123853	70454	38114
0	123859	70454	38104
0	123865	70454	38094
0	123871	70454	38084
0	123877	70454	38074
0	123883	70454	38064
0	123889	70454	38054
0	123895	70454	38044
0	123901	70454	38034
0	123907	70454	38024
0	123913	70454	38014
0	123919	70454	38004
0	123925	70454	37994
0	123931	70454	37984
0	123937	70454	37974
0	123943	70454	37964
0	123949	70454	37954
0	123955	70454	37944
0	123961	70454	37934
0	123967	70454	37924
0	123973	70454	37914
0	123979	70454	37904
0	123985	70454	37894
0	123991	70454	37884
0	123997	70454	37874
0	124003	70454	37864
0	124009	70454	37854
0	124015	70454	37844
0	124021	70454	37834
0	124027	70454	37824
0	124033	70454	37814
0	124039	70454	37804
0	124045	70454	37794
0	124051	70454	37784
0	124057	70454	37774
0	124063	70454	37764
0	124069	70454	37754
0	124075	70454	37744
0	124081	70454	37734
0	124087	70454	37724
0	124093	70454	37714
0	124099	70454	37704
0	124105	70454	37694
0	124111	70454	37684
0	124117	70454	37674
0	124123	70454	37664
0	124129	70454	37654
0	124135	70454	37644
0	124141	70454	37634
0	124147	70454	37624
0	124153	70454	37614
0	124159	70454	37604
0	124165	70454	37594
0	124171	70454	37584
0	124177	70454	37574
0	124183	70454	37564
0	124189	70454	37554
0	124195	70454	37544
0	124201	70454	37534
0	124207	70454	37524
0	124213	70454	37514
0	124219	70454	37504
0	124225	70454	37494
0	124231	70454	37484
0	124237	70454	37474
0	124243	70454	37464
0	124249	70454	37454
0	124255	70454	37444
0	124261	70454	37434
0	124267	70454	37424
0	124273	70454	37414
0	124279	70454	37404
0	124285	70454	37394
0	124291	70454	37384
0	124297	70454	37374
0	124303	70454	37364
0	124309	70454	37354
0	124315	70454	37344
0	124321	70454	37334
0	124327	70454	37324
0	124333	70454	37314
0	124339	70454	37304
0	124345	70454	37294
0	124351	70454	37284
0	124357	70454	37274
0	124363	70454	37264
0	124369	70454	37254
0	124375	70454	37244
0	124381	70454	37234
0	124387	70454	37224
0	124393	70454	37214
0	124399	70454	37204
0	124405	70454	37194
0	124411	70454	37184
0	124417	70454	37174
0	124423	70454	37164
0	124429	70454	37154
0	124435	70454	37144
0	124441	70454	37134
0	124447	70454	37124
0	124453	70454	37114
0	124459	70454	37104
0	124465	70454	37094
0	124471	70454	37084
0	124477	70454	37074
0	124483	70454	37064
0	124489	70454	37054
0	124495	70454	37044
0	124501	70454	37034
0	124507	70454	37024
0	124513	70454	37014
0	124519	70454	37004
0	124525	70454	36994
0	124531	70454	36984
0	124537	70454	36974
0	124543	70454	36964
0	124549	70454	36954
0	124555	70454	36944
0	124561	70454	36934
0	124567	70454	36924
0	124573	70454	36914
0	124579	70454	36904
0	124585	70454	36894
0	124591	70454	36884
0	124597	70454	36874
0	124603	70454	36864
0	124609	70454	36854
0	124615	70454	36844
0	124621	70454	36834
0	124627	70454	36824
0	124633	70454	36814
0	124639	70454	36804
0	124645	70454	36794
0	124651	70454	36784
0	124657	70454	36774
0	124663	70454	36764
0	124669	70454	36754
0	124675	70454	36744
0	124681	70454	36734
0	124687	70454	36724
0	124693	70454	36714
0	124699	70454	36704
0	124705	70454	36694
0	124711	70454	36684
0	124717	70454	36674
0	124723	70454	36664
0	124729	70454	36654
0	124735	70454	36644
0	124741	70454	36634
0	124747	70454	36624
0	124753	70454	36614
0	124759	70454	36604
0	124765	70454	36594
0	124771	70454	36584
0	124777	70454	36574
0	124783	70454	36564
0	124789	70454	36554
0	124795	70454	36544
0	124801	70454	36534
0	124807	70454	36524
0	124813	70454	36514
0	124819	70454	36504
0	124825	70454	36494
0	124831	70454	36484
0	124837	70454	36474
0	124843	70454	36464
0	124849	70454	36454
0	124855	70454	36444
0	124861	70454	36434
0	124867	70454	36424
0	124873	70454	36414
0	124879	70454	36404
0	124885	70454	36394
0	124891	70454	36384
0	124897	70454	36374
0	124903	70454	36364
0	124909	70454	36354
0	124915	70454	36344
0	124921	70454	36334
0	124927	70454	36324
0	124933	70454	36314
0	124939	70454	36304
0	124945	70454	36294
0	124951	70454	36284
0	124957	70454	36274
0	124963	70454	36264
0	124969	70454	36254
0	124975	70454	36244
0	124981	70454	36234
0	124987	70454	36224
0	124993	70454	36214
0	124999	70454	36204
0	125005	70454	36194
0	125011	70454	36184
0	125017	70454	36174
0	125023	70454	36164
0	125029	70454	36154
0	125035	70454	36144
0	125041	70454	36134
0	125047	70454	36124
0	125053	70454	36114
0	125059	70454	36104
0	125065	70454	36094
0	125071	70454	36084
0	125077	70454	36074
0	125083	70454	36064
0	125089	70454	36054
0	125095	70454	36044
0	125101	70454	36034
0	125107	70454	36024
0	125113	70454	36014
0	125119	70454	36004
0	125125	70454	35994
0	125131	70454	35984
0	125137	70454	35974
0	125143	70454	35964
0	125149	70454	35954
0	125155	70454	35944
0	125161	70454	35934
0	125167	70454	35924
0	125173	70454	35914
0	125179	70454	35904
0	125185	70454	35894
0	125191	70454	35884
0	125197	70454	35874
0	125203	70454	35864
0	125209	70454	35854
0	125215	70454	35844
0	125221	70454	35834
0	125227	70454	35824
0	125233	70454	35814
0	125239	70454	35804
0	125245	70454	35794
0	125251	70454	35784
0	125257	70454	35774
0	125263	70454	35764
0	125269	70454	35754
0	125275	70454	35744
0	125281	70454	35734
0	125287	70454	35724
0	125293	70454	35714
0	125299	70454	35704
0	125305	70454	35694
0	125311	70454	35684
0	125317	70454	35674
0	125323	70454	35664
0	125329	70454	35654
0	125335	70454	35644
0	125341	70454	35634
0	125347	70454	35624
0	125353	70454	35614
0	125359	70454	35604
0	125365	70454	35594
0	125371	70454	35584
0	125377	70454	35574
0	125383	70454	35564
0	125389	70454	35554
0	125395	70454	35544
0	125401	70454	35534
0	125407	70454	35524
0	125413	70454	35514
0	125419	70454	35504
0	125425	70454	35494
0	125431	70454	35484
0	125437	70454	35474
0	125443	70454	35464
0	125449	70454	35454
0	125455	70454	35444
0	125461	70454	35434
0	125467	70454	35424
0	125473	70454	35414
0	125479	70454	35404
0	125485	70454	35394
0	125491	70454	35384
0	125497	70454	35374
0	125503	70454	35364
0	125509	70454	35354
0	125515	70454	35344
0	125521	70454	35334
0	125527	70454	35324
0	125533	70454	35314
0	125539	70454	35304
0	125545	70454	35294
0	125551	70454	35284
0	125557	70454	35274
0	125563	70454	35264
0	125569	70454	35254
0	125575	70454	35244
0	125581	70454	35234
0	125587	70454	35224
0	125593	70454	35214
0	125599	70454	35204
0	125605	70454	35194
0	125611	70454	35184
0	125617	70454	35174
0	125623	70454	35164
0	125629	70454	35154
0	125635	70454	35144
0	125641	70454	35134
0	125647	70454	35124
0	125653	70454	35114
0	125659	70454	35104
0	125665	70454	35094
0	125671	70454	35084
0	125677	70454	35074
0	125683	70454	35064
0	125689	70454	35054
0	125695	70454	35044
0	125701	70454	35034
0	125707	70454	35024
0	125713	70454	35014
0	125719	70454	35004
0	125725	70454	34994
0	125731	70454	34984
0	125737	70454	34974
0	125743	70454	34964
0	125749	70454	34954
0	125755	70454	34944
0	125761	70454	34934
0	125767	70454	34924
0	125773	70454	34914
0	125779	70454	34904
0	125785	70454	34894
0	125791	70454	34884
0	125797	70454	34874
0	125803	70454	34864
0	125809	70454	34854
0	125815	70454	34844
0	125821	70454	34834
0	125827	70454	34824
0	125833	70454	34814
0	125839	70454	34804
0	125845	70454	34794
0	125851	70454	34784
0	125857	70454	34774
0	125863	70454	34764
0	125869	70454	34754
0	125875	70454	34744
0	125881	70454	34734
0	125887	70454	34724
0	125893	70454	34714
0	125899	70454	34704
0	125905	70454	34694
0	125911	70454	34684
0	125917	70454	34674
0	125923	70454	34664
0	125929	70454	34654
0	125935	70454	34644
0	125941	70454	34634
0	125947	70454	34624
0	125953	70454	34614
0	125959	70454	34604
0	125965	70454	34594
0	125971	70454	34584
0	125977	70454	34574
0	125983	70454	34564
0	125989	70454	34554
0	125995	70454	34544
0	126001	70454	34534
0	126007	70454	34524
0	126013	70454	34514
0	126019	70454	34504
0	126025	70454	34494
0	126031	70454	34484
0	126037	70454	34474
0	126043	70454	34464
0	126049	70454	34454
0	126055	70454	34444
0	126061	70454	34434
0	126067	70454	34424
0	126073	70454	34414
0	126079	70454	34404
0	126085	70454	34394
0	126091	70454	34384
0	126097	70454	34374
0	126103	70454	34364
0	126109	70454	34354
0	126115	70454	34344
0	126121	70454	34334
0	126127	70454	34324
0	126133	70454	34314
0	126139	70454	34304
0	126145	70454	34294
0	126151	70454	34284
0	126157	70454	34274
0	126163	70454	34264
0	126169	70454	34254
0	126175	70454	34244
0	126181	70454	34234
0	126187	70454	34224
0	126193	70454	34214
0	126199	70454	34204
0	126205	70454	34194
0	126211	70454	34184
0	126217	70454	34174
0	126223	70454	34164
0	126229	70454	34154
0	126235	70454	34144
0	126241	70454	34134
0	126247	70454	34124
0	126253	70454	34114
0	126259	70454	34104
0	126265	70454	34094
0	126271	70454	34084
0	126277	70454	34074
0	126283	70454	34064
0	126289	70454	34054
0	126295	70454	34044
0	126301	70454	34034
0	126307	70454	34024
0	126313	70454	34014
0	126319	70454	34004
0	126325	70454	33994
0	126331	70454	33984
0	126337	70454	33974
0	126343	70454	33964
0	126349	70454	33954
0	126355	70454	33944
0	126361	70454	33934
0	126367	70454	33924
0	126373	70454	33914
0	126379	70454	33904
0	126385	70454	33894
0	126391	70454	33884
0	126397	70454	33874
0	126403	70454	33864
0	126409	70454	33854
0	126415	70454	33844
0	126421	70454	33834
0	126427	70454	33824
0	126433	70454	33814
0	126439	70454	33804
0	126445	70454	33794
0	126451	70454	33784
0	126457	70454	33774
0	126463	70454	33764
0	126469	70454	33754
0	126475	70454	33744
0	126481	70454	33734
0	126487	70454	33724
0	126493	70454	33714
0	126499	70454	33704
0	126505	70454	33694
0	126511	70454	33684
0	126517	70454	33674
0	126523	70454	33664
0	126529	70454	33654
0	126535	70454	33644
0	126541	70454	33634
0	126547	70454	33624
0	126553	70454	33614
0	126559	70454	33604
0	126565	70454	33594
0	126571	70454	33584
0	126577	70454	33574
0	126583	70454	33564
0	126589	70454	33554
0	126595	70454	33544
0	126601	70454	33534
0	126607	70454	33524
0	126613	70454	33514
0	126619	70454	33504
0	126625	70454	33494
0	126631	70454	33484
0	126637	70454	33474
0	126643	70454	33464
0	126649	70454	33454
0	126655	70454	33444
0	126661	70454	33434
0	126667	70454	33424
0	126673	70454	33414
0	126679	70454	33404
0	126685	70454	33394
0	126691	70454	33384
0	126697	70454	33374
0	126703	70454	33364
0	126709	70454	33354
0	126715	70454	33344
0	126721	70454	33334
0	126727	70454	33324
0	126733	70454	33314
0	126739	70454	33304
0	126745	70454	33294
0	126751	70454	33284
0	126757	70454	33274
0	126763	70454	33264
0	126769	70454	33254
0	126775	70454	33244
0	126781	70454	33234
0	126787	70454	33224
0	126793	70454	33214
0	126799	70454	33204
0	126805	70454	33194
0	126811	70454	33184
0	126817	70454	33174
0	126823	70454	33164
0	126829	70454	33154
0	126835	70454	33144
0	126841	70454	33134
0	126847	70454	33124
0	126853	70454	33114
0	126859	70454	33104
0	126865	70454	33094
0	126871	70454	33084
0	126877	70454	33074
0	126883	70454	33064
0	126889	70454	33054
0	126895	70454	33044
0	126901	70454	33034
0	126907	70454	33024
0	126913	70454	33014
0	126919	70454	33004
0	126925	70454	32994
0	126931	70454	32984
0	126937	70454	32974
0	126943	70454	32964
0	126949	70454	32954
0	126955	70454	32944
0	126961	70454	32934
0	126967	70454	32924
0	126973	70454	32914
0	126979	70454	32904
0	126985	70454	32894
0	126991	70454	32884
0	126997	70454	32874
0	127003	70454	32864
0	127009	70454	32854
0	127015	70454	32844
0	127021	70454	32834
0	127027	70454	32824
0	127033	70454	32814
0	127039	70454	32804
0	127045	70454	32794
0	127051	70454	32784
0	127057	70454	32774
0	127063	70454	32764
0	127069	70454	32754
0	127075	70454	32744
0	127081	70454	32734
0	127087	70454	32724
0	127093	70454	32714
0	127099	70454	32704
0	127105	70454	32694
0	127111	70454	32684
0	127117	70454	32674
0	127123	70454	32664
0	127129	70454	32654
0	127135	70454	32644
0	127141	70454	32634
0	127147	70454	32624
0	127153	70454	32614
0	127159	70454	32604
0	127165	70454	32594
0	127171	70454	32584
0	127177	70454	32574
0	127183	70454	32564
0	127189	70454	32554
0	127195	70454	32544
0	127201	70454	32534
0	127207	70454	32524
0	127213	70454	32514
0	127219	70454	32504
0	127225	70454	32494
0	127231	70454	32484
0	127237	70454	32474
0	127243	70454	32464
0	127249	70454	32454
0	127255	70454	32444
0	127261	70454	32434
0	127267	70454	32424
0	127273	70454	32414
0	127279	70454	32404
0	127285	70454	32394
0	127291	70454	32384
0	127297	70454	32374
0	127303	70454	32364
0	127309	70454	32354
0	127315	70454	32344
0	127321	70454	32334
0	127327	70454	32324
0	127333	70454	32314
0	127339	70454	32304
0	127345	70454	32294
0	127351	70454	32284
0	127357	70454	32274
0	127363	70454	32264
0	127369	70454	32254
0	127375	70454	32244
0	127381	70454	32234
0	127387	70454	32224
0	127393	70454	32214
0	127399	70454	32204
0	127405	70454	32194
0	127411	70454	32184
0	127417	70454	32174
0	127423	70454	32164
0	127429	70454	32154
0	127435	70454	32144
0	127441	70454	32134
0	127447	70454	32124
[...]
0	145933	70454	1314
0	145939	70454	1304
0	145945	70454	1294
0	145951	70454	1284
0	145957	70454	1274
0	145963	70454	1264
0	145969	70454	1254
0	145975	70454	1244
0	145981	70454	1234
0	145987	70454	1224
0	145993	70454	1214
0	145999	70454	1204
0	146005	70454	1194
0	146011	70454	1184
0	146017	70454	1174
0	146023	70454	1164
0	146029	70454	1154
0	146035	70454	1144
0	146041	70454	1134
0	146047	70454	1124
0	146053	70454	1114
0	146059	70454	1104
0	146065	70454	1094
0	146071	70454	1084
0	146077	70454	1074
0	146083	70454	1064
0	146089	70454	1054
0	146095	70454	1044
0	146101	70454	1034
0	146107	70454	1024
0	146113	70454	1014
0	146119	70454	1004
0	146125	70454	994
0	146131	70454	984
0	146137	70454	974
0	146143	70454	964
0	146149	70454	954
0	146155	70454	944
0	146161	70454	934
0	146167	70454	924
0	146173	70454	914
0	146179	70454	904
0	146185	70454	894
0	146191	70454	884
0	146197	70454	874
0	146203	70454	864
0	146209	70454	854
0	146215	70454	844
0	146224	70456	836
0	146247	70466	836
0	146270	70476	836
0	146293	70486	836
0	146316	70496	836
0	146339	70506	836
0	146362	70516	836
0	146385	70526	836
0	146408	70536	836
0	146431	70546	836
0	146454	70556	836
0	146477	70566	836
0	146500	70576	836
0	146523	70586	836
0	146546	70596	836
0	146569	70606	836
0	146592	70616	836
0	146617	70626	836
0	146641	70636	836
0	146666	70646	836
0	146689	70656	836
0	146712	70666	836
0	146735	70676	836
0	146758	70686	836
0	146781	70696	836
0	146804	70706	836
0	146827	70716	836
0	146850	70726	836
0	146873	70736	836
0	146896	70746	836
0	146919	70756	836
0	146942	70766	836
0	146965	70776	836
0	146988	70786	836
0	147011	70796	836
0	147034	70806	836
0	147057	70816	836
0	147080	70826	836
0	147103	70836	836
0	147126	70846	836
0	147149	70856	836
0	147173	70866	836
0	147196	70876	836
0	147219	70886	836
0	147242	70896	836
0	147265	70906	836
0	147288	70916	836
0	147311	70926	836
0	147334	70936	836
0	147357	70946	836
0	147380	70956	836
0	147403	70966	836
0	147429	70976	836
0	147453	70986	836
0	147477	70996	836
0	147501	71006	836
0	147525	71016	836
0	147549	71026	836
0	147573	71036	836
0	147597	71046	836
0	147621	71056	836
0	147645	71066	836
0	147671	71076	836
0	147695	71086	836
0	147719	71096	836
0	147743	71106	836
0	147767	71116	836
0	147791	71126	836
0	147815	71136	836
0	147839	71146	836
0	147863	71156	836
0	147887	71166	836
0	147911	71176	836
0	147937	71186	836
0	147961	71196	836
0	147986	71206	836
0	148011	71216	836
0	148038	71226	836
0	148063	71236	836
0	148088	71246	836
0	148113	71256	836
0	148138	71266	836
0	148163	71276	836
0	148190	71286	836
0	148216	71296	836
0	148242	71306	836
0	148268	71316	836
0	148294	71326	836
0	148320	71336	836
0	148346	71346	836
0	148372	71356	836
0	148398	71366	836
0	148424	71376	836
0	148450	71386	836
0	148476	71396	836
0	148502	71406	836
0	148528	71416	836
0	148554	71426	836
0	148582	71436	836
0	148609	71446	836
0	148636	71456	836
0	148663	71466	836
0	148690	71476	836
0	148717	71486	836
0	148744	71496	836
0	148771	71506	836
0	148798	71516	836
0	148825	71526	836
0	148852	71536	836
0	148879	71546	836
0	148906	71556	836
0	148933	71566	836
0	148960	71576	836
0	148987	71586	836
0	149014	71596	836
0	149041	71606	836
0	149068	71616	836
0	149095	71626	836
0	149122	71636	836
0	149152	71646	836
0	149179	71656	836
0	149206	71666	836
0	149233	71676	836
0	149260	71686	836
0	149287	71696	836
0	149314	71706	836
0	149341	71716	836
0	149368	71726	836
0	149395	71736	836
0	149422	71746	836
0	149449	71756	836
0	149476	71766	836
0	149503	71776	836
0	149530	71786	836
0	149557	71796	836
0	149584	71806	836
0	149611	71816	836
0	149638	71826	836
0	149665	71836	836
0	149692	71846	836
0	149719	71856	836
0	149746	71866	836
0	149770	71876	836
0	149794	71886	836
0	149818	71896	836
0	149842	71906	836
0	149866	71916	836
0	149890	71926	836
0	149914	71936	836
0	149938	71946	836
0	149962	71956	836
0	149986	71966	836
0	150010	71976	836
0	150034	71986	836
0	150058	71996	836
0	150082	72006	836
0	150108	72016	836
0	150132	72026	836
0	150160	72036	836
0	150186	72046	836
0	150212	72056	836
0	150238	72066	836
0	150264	72076	836
0	150290	72086	836
0	150318	72096	836
0	150344	72106	836
0	150370	72116	836
0	150396	72126	836
0	150429	72136	836
0	150456	72146	836
0	150487	72156	836
0	150515	72166	836
0	150544	72176	836
0	150575	72186	836
0	150605	72196	836
0	150635	72206	836
0	150665	72216	836
0	150695	72226	836
0	150725	72236	836
0	150755	72246	836
0	150785	72256	836
0	150815	72266	836
0	150845	72276	836
0	150877	72286	836
0	150907	72296	836
0	150937	72306	836
0	150967	72316	836
0	150999	72326	836
0	151030	72336	836
0	151061	72346	836
0	151092	72356	836
0	151123	72366	836
0	151154	72376	836
0	151185	72386	836
0	151216	72396	836
0	151247	72406	836
0	151278	72416	836
0	151314	72426	836
0	151346	72436	836
0	151378	72446	836
0	151410	72456	836
0	151442	72466	836
0	151476	72476	836
0	151509	72486	836
0	151542	72496	836
0	151575	72506	836
0	151608	72516	836
0	151641	72526	836
0	151676	72536	836
0	151710	72546	836
0	151744	72556	836
0	151778	72566	836
0	151812	72576	836
0	151846	72586	836
0	151880	72596	836
0	151914	72606	836
0	151948	72616	836
0	151982	72626	836
0	152016	72636	836
0	152050	72646	836
0	152084	72656	836
0	152118	72666	836
0	152152	72676	836
0	152186	72686	836
0	152220	72696	836
0	152977	73020	840
0	153015	73030	840
0	153056	73040	840
0	153095	73050	840
0	153136	73060	840
0	153178	73070	840
0	153218	73080	840
0	153260	73090	840
0	153300	73100	840
0	153340	73110	840
0	153380	73120	840
0	153422	73130	840
0	153462	73140	840
0	153502	73150	840
0	153542	73160	840
0	153582	73170	840
0	153622	73180	840
0	153664	73190	840
0	153704	73200	840
0	153744	73210	840
0	153784	73220	840
0	153826	73230	840
0	153868	73240	840
0	153910	73250	840
0	153950	73260	840
0	153992	73270	840
0	154032	73280	840
0	154073	73290	840
0	154114	73300	840
0	154155	73310	840
0	154196	73320	840
0	154237	73330	840
0	154278	73340	840
0	154319	73350	840
0	154360	73360	840
0	154405	73370	840
0	154447	73380	840
0	154489	73390	840
0	154533	73400	840
0	154577	73410	840
0	154619	73420	840
0	154661	73430	840
0	154703	73440	840
0	154745	73450	840
0	154787	73460	840
0	154831	73470	840
0	154873	73480	840
0	154915	73490	840
0	154958	73500	840
0	155000	73510	840
0	155042	73520	840
0	155087	73530	840
0	155130	73540	840
0	155223	73546	1676
0	155239	73546	1666
0	155245	73546	1656
0	155251	73546	1646
0	155257	73546	1636
0	155263	73546	1626
0	155269	73546	1616
0	155275	73546	1606
0	155281	73546	1596
0	155287	73546	1586
0	155293	73546	1576
0	155299	73546	1566
0	155305	73546	1556
0	155311	73546	1546
0	155317	73546	1536
0	155323	73546	1526
0	155329	73546	1516
0	155335	73546	1506
0	155341	73546	1496
0	155347	73546	1486
0	155353	73546	1476
0	155359	73546	1466
0	155365	73546	1456
0	155371	73546	1446
0	155377	73546	1436
0	155383	73546	1426
0	155389	73546	1416
0	155395	73546	1406
0	155401	73546	1396
0	155407	73546	1386
0	155413	73546	1376
0	155419	73546	836
0	155452	73556	836
0	155497	73566	836
0	155541	73576	836
0	155585	73586	836
0	155629	73596	836
0	155673	73606	836
0	155717	73616	836
0	155761	73626	836
0	155805	73636	836
0	155849	73646	836
0	155893	73656	836
0	155937	73666	836
0	155984	73676	836
0	156032	73686	836
0	156079	73696	836
0	156124	73706	836
0	156169	73716	836
0	156214	73726	836
0	156259	73736	836
0	156304	73746	836
0	156349	73756	836
0	156394	73766	836
0	156439	73776	836
0	156486	73786	836
0	156533	73796	836
0	156578	73806	836
0	156623	73816	836
0	156668	73826	836
0	156713	73836	836
0	156758	73846	836
0	156803	73856	836
0	156848	73866	836
0	156893	73876	836
0	156938	73886	836
0	156983	73896	836
0	157028	73906	836
0	157073	73916	836
0	157119	73926	836
0	157163	73936	836
0	157207	73946	836
0	157251	73956	836
0	157297	73966	836
0	157342	73976	836
0	157389	73986	836
0	157434	73996	836
0	157479	74006	836
0	157524	74016	836
0	157569	74026	836
0	157616	74036	836
0	157661	74046	836
0	157706	74056	836
0	157753	74066	836
0	157798	74076	836
0	157847	74086	836
0	157893	74096	836
0	157939	74106	836
0	157987	74116	836
0	158034	74126	836
0	158081	74136	836
0	158128	74146	836
0	158177	74156	836
0	158224	74166	836
0	158272	74176	836
0	158321	74186	836
0	158368	74196	836
0	158415	74206	836
0	158462	74216	836
0	158509	74226	836
0	158558	74236	836
0	158605	74246	836
0	158653	74256	836
0	158701	74266	836
0	158752	74276	836
0	158801	74286	836
0	158850	74296	836
0	158921	74306	836
0	158990	74316	836
0	159062	74326	836
0	159132	74336	836
0	159202	74346	836
0	159272	74356	836
0	159348	74366	836
0	159419	74376	836
0	159490	74386	836
0	159561	74396	836
0	159632	74406	836
0	159703	74416	836
0	159774	74426	836
0	159845	74436	836
0	159916	74446	836
0	159989	74456	836
0	160060	74466	836
0	160131	74476	836
0	160204	74486	836
0	160279	74496	836
0	160352	74506	836
0	160425	74516	836
0	160505	74526	836
0	160584	74536	836
0	160660	74546	836
0	160736	74556	836
0	160812	74566	836
0	160888	74576	836
0	160967	74586	836
0	161046	74596	836
0	161128	74606	836
0	161211	74616	836
0	161292	74626	836
0	161372	74636	836
0	161455	74646	836
0	161536	74656	836
0	161619	74666	836
0	161704	74676	836
0	161787	74686	836
0	161870	74696	836
0	161953	74706	836
0	162036	74716	836
0	162119	74726	836
0	162204	74736	836
0	162287	74746	836
0	162372	74756	836
0	162457	74766	836
0	162539	74776	836
0	162627	74786	836
0	162711	74796	836
0	162798	74806	836
0	162883	74816	836
0	162970	74826	836
0	163057	74836	836
0	163143	74846	836
0	163233	74856	836
0	163320	74866	836
0	163394	74876	836
0	163454	74886	836
0	163514	74896	836
0	163576	74906	836
0	163637	74916	836
0	163698	74926	836
0	163759	74936	836
0	163822	74946	836
0	163884	74956	836
0	163946	74966	836
0	164008	74976	836
0	164071	74986	836
0	164132	74996	836
0	164196	75006	836
0	164258	75016	836
0	164322	75026	836
0	164388	75036	836
0	164457	75046	836
0	164523	75056	836
0	164589	75066	836
0	164655	75076	836
0	164724	75086	836
0	164790	75096	836
0	164856	75106	836
0	164926	75116	836
0	164994	75126	836
0	165062	75136	836
0	165130	75146	836
0	165198	75156	836
0	165266	75166	836
0	165334	75176	836
0	165404	75186	836
0	165474	75196	836
0	165545	75206	836
0	165614	75216	836
0	165683	75226	836
0	165756	75236	836
0	165827	75246	836
0	165896	75256	836
0	165966	75266	836
0	166040	75276	836
0	166113	75286	836
0	166184	75296	836
0	166255	75306	836
0	166326	75316	836
0	166397	75326	836
0	166468	75336	836
0	166539	75346	836
0	166610	75356	836
0	166681	75366	836
0	166752	75376	836
0	166823	75386	836
0	166894	75396	836
0	166967	75406	836
0	167037	75416	836
0	167107	75426	836
0	167180	75436	836
0	167253	75446	836
0	167325	75456	836
0	167397	75466	836
0	167472	75476	836
0	167546	75486	836
0	167618	75496	836
0	167694	75506	836
0	167768	75516	836
0	167841	75526	836
0	167914	75536	836
0	167987	75546	836
0	168060	75556	836
0	168135	75566	836
0	168213	75576	836
0	168289	75586	836
0	172095	76436	1676
0	172122	76436	1666
0	172128	76436	1656
0	172134	76436	1646
0	172140	76436	1636
0	172146	76436	1626
0	172152	76436	1616
0	172158	76436	1606
0	172164	76436	1596
0	172170	76436	1586
0	172176	76436	1576
0	172182	76436	1566
0	172188	76436	1556
0	172194	76436	1546
0	172200	76436	1536
0	172206	76436	1526
0	172212	76436	1516
0	172218	76436	1506
0	172224	76436	1496
0	172230	76436	1486
0	172236	76436	1476
0	172242	76436	1466
0	172248	76436	1456
0	172254	76436	1446
0	172260	76436	1436
0	172266	76436	1426
0	172272	76436	1416
0	172278	76436	1406
0	172284	76436	1396
0	172290	76436	1386
0	172296	76436	1376
0	172302	76436	1366
0	172308	76436	1356
0	172314	76436	1346
0	172320	76436	1336
0	172326	76436	1326
0	172332	76436	1316
0	172338	76436	1306
0	172344	76436	1296
0	172350	76436	1286
0	172356	76436	1276
0	172362	76436	1266
0	172368	76436	1256
0	172374	76436	1246
0	172380	76436	1236
0	172386	76436	1226
0	172392	76436	1216
0	172398	76436	1206
0	172404	76436	1196
0	172410	76436	1186
0	172416	76436	1176
0	172422	76436	1166
0	172428	76436	1156
0	172434	76436	1146
0	172440	76436	1136
0	172446	76436	1126
0	172452	76436	1116
0	172458	76436	1106
0	172464	76436	1096
0	172470	76436	1086
0	172476	76436	1076
0	172482	76436	1066
0	172488	76436	1056
0	172494	76436	1046
0	172500	76436	1036
0	172506	76436	1026
0	172512	76436	1016
0	172518	76436	1006
0	172524	76436	996
0	172530	76436	986
0	172536	76436	976
0	172542	76436	966
0	172548	76436	956
0	172554	76436	946
0	172560	76436	936
0	172566	76436	926
0	172572	76436	916
0	172578	76436	906
0	172584	76436	896
0	172590	76436	886
0	172596	76436	876
0	172602	76436	866
0	172608	76436	856
0	172614	76436	846
0	172620	76436	836
0	172679	76446	836
0	172758	76456	836
0	172837	76466	836
0	172918	76476	836
0	172998	76486	836
0	173078	76496	836
0	173158	76506	836
0	173240	76516	836
0	173320	76526	836
0	173400	76536	836
0	173479	76546	836
0	173558	76556	836
0	173637	76566	836
0	173716	76576	836
0	173796	76586	836
0	173877	76596	836
0	173957	76606	836
0	174037	76616	836
0	174117	76626	836
0	174197	76636	836
0	174277	76646	836
0	174357	76656	836
0	174437	76666	836
0	174517	76676	836
0	174601	76686	836
0	174683	76696	836
0	174765	76706	836
0	174846	76716	836
0	174927	76726	836
0	175009	76736	836
0	175089	76746	836
0	175170	76756	836
0	175253	76766	836
0	175332	76776	836
0	175411	76786	836
0	175490	76796	836
0	175568	76806	836
0	175647	76816	836
0	175726	76826	836
0	175803	76836	836
0	175880	76846	836
0	175957	76856	836
0	176034	76866	836
0	176111	76876	836
0	176188	76886	836
0	176265	76896	836
0	176342	76906	836
0	176419	76916	836
0	176496	76926	836
0	176573	76936	836
0	176650	76946	836
0	176727	76956	836
0	176805	76966	836
0	176883	76976	836
0	176960	76986	836
0	177037	76996	836
0	177114	77006	836
0	177191	77016	836
0	177268	77026	836
0	177346	77036	836
0	177428	77046	836
0	177506	77056	836
0	177584	77066	836
0	177662	77076	836
0	177741	77086	836
0	177819	77096	836
0	177897	77106	836
0	177978	77116	836
0	178060	77126	836
0	178138	77136	836
0	178213	77146	836
0	178290	77156	836
0	178365	77166	836
0	178442	77176	836
0	178516	77186	836
0	178590	77196	836
0	178664	77206	836
0	178738	77216	836
0	178812	77226	836
0	178889	77236	836
0	178966	77246	836
0	179038	77256	836
0	179110	77266	836
0	179182	77276	836
0	179254	77286	836
0	179328	77296	836
0	179401	77306	836
0	179475	77316	836
0	179547	77326	836
0	179619	77336	836
0	179693	77346	836
0	179765	77356	836
0	179839	77366	836
0	179911	77376	836
0	179990	77386	836
0	180063	77396	836
0	180136	77406	836
0	180208	77416	836
0	180282	77426	836
0	180354	77436	836
0	180427	77446	836
0	180499	77456	836
0	180571	77466	836
0	180646	77476	836
0	180719	77486	836
0	180792	77496	836
0	180869	77506	836
0	180942	77516	836
0	181015	77526	836
0	181088	77536	836
0	181161	77546	836
0	181236	77556	836
0	181314	77566	836
0	181389	77576	836
0	181463	77586	836
0	181537	77596	836
0	181611	77606	836
0	181687	77616	836
0	181762	77626	836
0	181838	77636	836
0	181913	77646	836
0	181991	77656	836
0	182068	77666	836
0	182143	77676	836
0	182218	77686	836
0	182293	77696	836
0	182370	77706	836
0	182448	77716	836
0	182524	77726	836
0	182601	77736	836
0	182679	77746	836
0	182756	77756	836
0	182833	77766	836
0	182910	77776	836
0	182989	77786	836
0	183066	77796	836
0	183142	77806	836
0	183218	77816	836
0	183294	77826	836
0	183371	77836	836
0	183447	77846	836
0	183522	77856	836
0	183597	77866	836
0	183675	77876	836
0	183752	77886	836
0	183828	77896	836
0	183904	77906	836
0	183982	77916	836
0	184059	77926	836
0	184139	77936	836
0	184216	77946	836
0	184296	77956	836
0	184373	77966	836
0	192221	79916	2776
0	192239	79916	2766
0	192245	79916	2756
0	192251	79916	2746
0	192257	79916	2736
0	192263	79916	2726
0	192269	79916	2716
0	192275	79916	2706
0	192281	79916	2696
0	192287	79916	2686
0	192293	79916	2676
0	192299	79916	2666
0	192305	79916	2656
0	192311	79916	2646
0	192317	79916	2636
0	192323	79916	2626
0	192329	79916	2616
0	192335	79916	2606
0	192341	79916	2596
0	192347	79916	2586
0	192353	79916	2576
0	192359	79916	2566
0	192365	79916	2556
0	192371	79916	2546
0	192377	79916	2536
0	192383	79916	2526
0	192389	79916	2516
0	192395	79916	2506
0	192401	79916	2496
0	192407	79916	2486
0	192413	79916	2476
0	192419	79916	2466
0	192425	79916	2456
0	192431	79916	2446
0	192437	79916	2436
0	192443	79916	2426
0	192449	79916	2416
0	192455	79916	2406
0	192461	79916	2396
0	192467	79916	2386
0	192473	79916	2376
0	192479	79916	2366
0	192485	79916	2356
0	192491	79916	2346
0	192497	79916	2336
0	192503	79916	2326
0	192509	79916	2316
0	192515	79916	2306
0	192521	79916	2296
0	192527	79916	2286
0	192533	79916	2276
0	192539	79916	2266
0	192545	79916	2256
0	192551	79916	2246
0	192557	79916	2236
0	192563	79916	2226
0	192569	79916	2216
0	192575	79916	2206
0	192581	79916	2196
0	192587	79916	2186
0	192593	79916	2176
0	192599	79916	2166
0	192605	79916	2156
0	192611	79916	2146
0	192617	79916	2136
0	192623	79916	2126
0	192629	79916	2116
0	192635	79916	2106
0	192641	79916	2096
0	192647	79916	2086
0	192653	79916	2076
0	192659	79916	2066
0	192665	79916	2056
0	192671	79916	2046
0	192677	79916	2036
0	192683	79916	2026
0	192689	79916	2016
0	192695	79916	2006
0	192701	79916	1996
0	192707	79916	1986
0	192713	79916	1976
0	192719	79916	1966
0	192725	79916	1956
0	192731	79916	1946
0	192737	79916	1936
0	192743	79916	1926
0	192749	79916	1916
0	192755	79916	1906
0	192761	79916	1896
0	192767	79916	1886
0	192773	79916	1876
0	192779	79916	1866
0	192785	79916	1856
0	192791	79916	1846
0	192797	79916	1836
0	192803	79916	1826
0	192809	79916	1816
0	192815	79916	1806
0	192821	79916	1796
0	192827	79916	1786
0	192833	79916	1776
0	192839	79916	1766
0	192845	79916	1756
0	192851	79916	1746
0	192857	79916	1736
0	192863	79916	1726
0	192869	79916	1716
0	192875	79916	1706
0	192881	79916	1696
0	192887	79916	1686
0	192893	79916	1676
0	192899	79916	1666
0	192905	79916	1656
0	192911	79916	1646
0	192917	79916	1636
0	192923	79916	1626
0	192929	79916	1616
0	192935	79916	1606
0	192941	79916	1596
0	192947	79916	1586
0	192953	79916	1576
0	192959	79916	1566
0	192965	79916	1556
0	192971	79916	1546
0	192977	79916	1536
0	192983	79916	1526
0	192989	79916	1516
0	192995	79916	1506
0	193001	79916	1496
0	193007	79916	1486
0	193013	79916	1476
0	193019	79916	1466
0	193025	79916	1456
0	193031	79916	1446
0	193037	79916	1436
0	193043	79916	1426
0	193049	79916	1416
0	193055	79916	1406
0	193061	79916	1396
0	193067	79916	1386
0	193073	79916	1376
0	193079	79916	1366
0	193085	79916	1356
0	193091	79916	1346
0	193097	79916	1336
0	193103	79916	1326
0	193109	79916	1316
0	193115	79916	1306
0	193121	79916	1296
0	193127	79916	1286
0	193133	79916	1276
0	193139	79916	1266
0	193145	79916	1256
0	193151	79916	1246
0	193157	79916	1236
0	193163	79916	1226
0	193169	79916	1216
0	193175	79916	1206
0	193181	79916	1196
0	193187	79916	1186
0	193193	79916	1176
0	193199	79916	1166
0	193205	79916	1156
0	193211	79916	1146
0	193217	79916	1136
0	193223	79916	1126
0	193229	79916	1116
0	193235	79916	1106
0	193241	79916	1096
0	193247	79916	1086
0	193253	79916	1076
0	193259	79916	1066
0	193265	79916	1056
0	193271	79916	1046
0	193277	79916	1036
0	193283	79916	1026
0	193289	79916	1016
0	193295	79916	1006
0	193301	79916	996
0	193307	79916	986
0	193313	79916	976
0	193319	79916	966
0	193325	79916	956
0	193331	79916	946
0	193337	79916	936
0	193343	79916	926
0	193349	79916	916
0	193355	79916	906
0	193361	79916	896
0	193367	79916	886
0	193373	79916	876
0	193379	79916	866
0	193385	79916	856
0	193391	79916	846
0	193397	79916	836
0	193434	79926	836
0	193485	79936	836
0	193534	79946	836
0	193583	79956	836
0	193632	79966	836
0	193681	79976	836
0	193730	79986	836
0	193779	79996	836
0	193801	80006	836
0	193823	80016	836
0	193845	80026	836
0	193869	80036	836
0	193893	80046	836
0	193916	80056	836
0	193943	80066	836
0	193967	80076	836
0	193991	80086	836
0	194017	80096	836
0	194041	80106	836
0	194065	80116	836
0	194089	80126	836
0	194116	80136	836
0	194141	80146	836
0	194166	80156	836
0	194190	80166	836
0	194214	80176	836
0	194239	80186	836
0	194263	80196	836
0	194287	80206	836
0	194313	80216	836
0	194337	80226	836
0	194361	80236	836
0	194385	80246	836
0	194409	80256	836
0	194433	80266	836
0	194457	80276	836
0	194481	80286	836
0	194505	80296	836
0	194531	80306	836
0	194555	80316	836
0	194579	80326	836

