file 10796408 1736875979                                        
version 2
run General-0-20250114-17:23:37-87488
attr configname General
attr datetime 20250114-17:23:37
attr experiment General
attr inifile shaw.ini
attr iterationvars ""
attr iterationvarsf ""
attr measurement ""
attr network src.dtnsim
attr processid 87488
attr repetition 0
attr replication #0
attr resultdir results
attr runnumber 0
attr seedset 0
param dtnsim.central.contactsFile "\"contactPlan/Contacts.txt\""
param dtnsim.central.contactsFile_A "\"contactPlan/Contacts_A.txt\""
param dtnsim.central.contactsFile_B "\"contactPlan/Contacts_B.txt\""
param dtnsim.central.contactIdsToDelete_from_celestialA "\"2 4 5 7 8 10 12 14 15 18 19 21 23 25 26 27 29 30 31 33 36 38 39 42 44 45 52 53 54 56 58 59 64 65 66 71 74 76 78 81 82 84 86 87 90 91 93 95 97 101 106 107 108 109 110 112 114 115 120 121 122 123 125 127 129 130 132 135 136 137 138 141 143 148 153 157 158 162 163 166 167 169 171 172 174 175 176 179 186 187 188 189 191 193 197 198 200 201 202 208 209 210 211 213 217 219 220 222 223 226 227 232 233 238 239 240 241 242 245 248 251 254 255 257 263 265 268 271 274 275 280 281 284 285 290 292 293 296 297 298\""
param dtnsim.central.contactIdsToDelete_from_celestialB "\"20 51 55 72 116 142 177 229 230 246\""
param dtnsim.central.celestialA_nodes "\"1 2 3\""
param dtnsim.central.celestialB_nodes "\"4 5 6\""
param dtnsim.central.locallyfaultsAware true
param dtnsim.central.mode_two_celestial true
param dtnsim.nodesNumber 6
param dtnsim.node[1].icon "\"receiverdish\""
param dtnsim.node[2..5].icon "\"satellite\""
param dtnsim.node[6].icon "\"receiverdish\""
param dtnsim.node[*].dtn.routing "\"cgrModel350\""
param dtnsim.node[*].dtn.routingType "\"routeListType:allPaths-firstEnding,volumeAware:allContacts,extensionBlock:on,contactPlan:global\""
param dtnsim.node[1].app.enable true
param dtnsim.node[*].app.custodyTransfer true
param dtnsim.node[1].app.bundlesNumber "\"3600\""
param dtnsim.node[1].app.start "\"0\""
param dtnsim.node[1].app.destinationEid "\"6\""
param dtnsim.node[1].app.size "\"1500\""
param dtnsim.node[1].app.interval 1

vector 0 dtnsim.node[6].app appBundleReceivedDelayvec:vector ETV
attr interpolationmode none
attr source appBundleReceivedDelay
attr title "appBundleReceivedDelayvec, vector"
0	2237 713113 27100 400486 489.1 1289.2 32768 1.3 1289.2 22952596.399995 18689179702.4
0	715350 736291 400487 800216 1289.2 1521.3 32768 1.3 1521.3 30180733.099996 31778186632.411
0	1451641 755519 800217 1166388 1521.3 1645.3 32768 1.3 1643.2 32438491.099995 36918325105.969
0	2207160 773624 1166389 1557007 1645.3 1790.1 32768 101.4 1790.1 35645169.899998 44032537977.211
0	2980784 773021 1557008 1890874 1790.1 2073.2 32768 1.2 2033.2 37383314.800015 50573993577.562
0	3753805 776007 1890875 2174466 2073.2 2290.1 32768 1.4 2288.1 42940890.900016 65762181789.992
0	4529812 778089 2174467 2479326 2290.1 2437.3 32768 1.2 2437.3 47534043.499998 79830498491.729
0	5307901 778087 2479327 2765148 2437.3 2550.5 32768 1.4 2550.5 48461052.900002 84546957567.569
0	6085988 779652 2765149 3288291 2550.5 3105.1 32768 101.4 3105.1 56685858.800033 116841777244.01
0	6865640 779193 3288292 3865886 3105.1 3346.1 32768 1.2 3346.1 59552101.400009 134223447606.23
0	7644833 779781 3865887 4268996 3346.1 3438.2 32768 1.2 3438.2 61570722.299996 140807263427.88
0	8424614 781816 4268997 4707633 3438.2 3484.2 32768 1.2 3484.2 65907142.19999 156248707446.63
0	9206430 781534 4707634 4958416 3484.2 3549.4 32768 101.2 3549.4 66889926.900001 162245009300.57
0	9987964 780904 4958417 5324354 3549.4 3584.3 32768 101.2 3584.3 66430016.899991 161587051330.97
0	10768868 27539 5324355 5328363 3584.3 3599.3 1179 201.2 1542.3 1028061.9 1038690363.31


