version 2
run General-0-20250129-20:14:51-212179
attr configname General
attr datetime 20250129-20:14:51
attr experiment General
attr inifile shaw_mine.ini
attr iterationvars ""
attr iterationvarsf ""
attr measurement ""
attr network src.dtnsim
attr processid 212179
attr repetition 0
attr replication #0
attr resultdir results
attr runnumber 0
attr seedset 0
param dtnsim.central.contactsFile "\"contactPlan/Contacts.txt\""
param dtnsim.central.contactsFile_A "\"contactPlan/Contacts.txt\""
param dtnsim.central.contactsFile_B "\"contactPlan/Contacts.txt\""
param dtnsim.central.contactIdsToDelete "\"6 7 8 10 13 21 28 30 34 40 44 47 48 54 55 56 57 70 73 75 77 81 83 84 90 92 106 109 116 117 118 127 128 129 136 137 152 160 171 172 175 176 177 184 189 190 193 194 196 197 200 206 210 213 224 227 228 230 250 254 256 257 262 266 272 282 287 288 289 290 291 292 295 310 313 314 315 316 321 322 325 327 329 333 341 346 351 352 355 356 361 364 369 376 378 383 386 389 393 397\""
param dtnsim.central.contactIdsToDelete_from_celestialA "\"7 8 21 28 34 44 47 48 54 57 70 75 77 81 92 109 116 128 129 136 137 152 172 175 176 177 184 189 190 193 194 196 206 213 224 228 250 254 257 262 282 287 291 292 295 310 314 325 329 333 341 346 355 361 364 369 376 383 386 393\""
param dtnsim.central.contactIdsToDelete_from_celestialB "\"6 10 13 30 40 55 56 73 83 84 90 106 117 118 127 160 171 197 200 210 227 230 256 266 272 288 289 290 313 315 316 321 322 327 351 352 356 378 389 397\""
param dtnsim.central.celestialA_nodes "\"1 2 3\""
param dtnsim.central.celestialB_nodes "\"4 5 6\""
param dtnsim.central.locallyfaultsAware true
param dtnsim.central.mode_two_celestial true
param dtnsim.central.faultsAware false
param dtnsim.nodesNumber 6
param dtnsim.node[1].icon "\"receiverdish\""
param dtnsim.node[2..5].icon "\"satellite\""
param dtnsim.node[6].icon "\"receiverdish\""
param dtnsim.node[*].dtn.routing "\"cgrModel350\""
param dtnsim.node[*].dtn.routingType "\"routeListType:allPaths-firstEnding,volumeAware:allContacts,extensionBlock:on,contactPlan:global\""
param dtnsim.node[1].app.enable true
param dtnsim.node[1].app.custodyTransfer true
param dtnsim.node[1].app.bundlesNumber "\"400\""
param dtnsim.node[1].app.start "\"0\""
param dtnsim.node[1].app.destinationEid "\"6\""
param dtnsim.node[1].app.size "\"1500\""
param dtnsim.node[1].app.interval 1
param dtnsim.node[*].app.custodyTimeout 100000000000000
param dtnsim.node[1].app.ttl 250

vector 0 dtnsim.node[6].app appBundleReceivedDelayvec:vector ETV
attr interpolationmode none
attr source appBundleReceivedDelay
attr title "appBundleReceivedDelayvec, vector"
0	252	8.47	8.47
0	253	8.47	7.47
0	254	8.47	6.47
0	255	8.47	5.47
0	256	8.47	4.47
0	257	8.47	3.47
0	258	8.47	2.47
0	259	8.47	1.47
0	335	9.47	1.47
0	390	10.47	1.47
0	431	11.47	1.47
0	472	12.47	1.47
0	513	13.47	1.47
0	554	14.47	1.47
0	595	15.47	1.47
0	636	16.47	1.47
0	677	17.47	1.47
0	718	18.47	1.47
0	759	19.47	1.47
0	800	20.47	1.47
0	841	21.47	1.47
0	882	22.47	1.47
0	923	23.47	1.47
0	964	24.47	1.47
0	1005	25.47	1.47
0	1046	26.47	1.47
0	1087	27.47	1.47
0	1128	28.47	1.47
0	1169	29.47	1.47
0	1210	30.47	1.47
0	1251	31.47	1.47
0	1292	32.47	1.47
0	1333	33.47	1.47
0	1374	34.47	1.47
0	1415	35.47	1.47
0	1456	36.47	1.47
0	1497	37.47	1.47
0	1538	38.47	1.47
0	1579	39.47	1.47
0	1620	40.47	1.47
0	1661	41.47	1.47
0	1702	42.47	1.47
0	1743	43.47	1.47
0	1784	44.47	1.47
0	1825	45.47	1.47
0	1866	46.47	1.47
0	1907	47.47	1.47
0	1948	48.47	1.47
0	1989	49.47	1.47
0	2030	50.47	1.47
0	2068	51.47	1.47
0	2161	53.63	2.63
0	2162	53.63	1.63
0	2236	55.01	2.01
0	2456	59.21	3.21
0	2457	59.21	5.21
0	2458	59.21	2.21
0	2488	59.23	4.23
0	2528	59.63	1.63
0	2618	60.63	1.63
0	2676	61.63	1.63
0	2946	65.77	4.77
0	2947	65.77	3.77
0	2948	65.77	2.77
0	2978	65.89	1.89
0	3066	66.89	1.89
0	3144	67.89	1.89
0	3219	68.89	1.89
0	3284	69.89	1.89
0	3348	70.89	1.89
0	3418	71.89	1.89
0	3487	72.89	1.89
0	3551	73.89	1.89
0	3616	74.89	1.89
0	3655	75.89	1.89
0	4119	83.89	8.89
0	4120	83.89	7.89
0	4121	83.89	6.89
0	4122	83.89	5.89
0	4123	83.89	4.89
0	4124	83.89	3.89
0	4125	83.89	2.89
0	4126	83.89	1.89
0	4224	84.89	1.89
0	4303	85.89	1.89
0	4368	86.89	1.89
0	4433	87.89	1.89
0	4498	88.89	1.89
0	4563	89.89	1.89
0	4628	90.89	1.89
0	4693	91.89	1.89
0	4758	92.89	1.89
0	4823	93.89	1.89
0	4888	94.89	1.89
0	4953	95.89	1.89
0	5018	96.89	1.89
0	5083	97.89	1.89
0	5148	98.89	1.89
0	5213	99.89	1.89
0	5278	100.89	1.89
0	5343	101.89	1.89
0	5408	102.89	1.89
0	5473	103.89	1.89
0	5538	104.89	1.89
0	5603	105.89	1.89
0	5668	106.89	1.89
0	5749	107.89	1.89
0	5824	108.89	1.89
0	5892	109.89	1.89
0	5960	110.89	1.89
0	6028	111.89	1.89
0	6096	112.89	1.89
0	6164	113.89	1.89
0	6232	114.89	1.89
0	6300	115.89	1.89
0	6368	116.89	1.89
0	6412	117.89	1.89
0	6460	118.66	1.66
0	6504	119.66	1.66
0	6571	120.66	1.66
0	6630	121.66	1.66
0	6689	122.66	1.66
0	6748	123.66	1.66
0	6819	124.63	1.63
0	6892	125.63	1.63
0	6979	126.63	1.63
0	7090	128.47	2.47
0	7091	128.47	1.47
0	7141	129.47	1.47
0	7195	130.47	1.47
0	7246	131.47	1.47
0	7314	132.47	1.47
0	7364	133.47	1.47
0	7695	142.52	9.52
0	7696	142.52	8.52
0	7697	142.52	7.52
0	7698	142.52	6.52
0	7699	142.52	5.52
0	7700	142.52	4.52
0	7701	142.52	3.52
0	7702	142.52	2.52
0	7703	142.52	1.52
0	7786	143.52	1.52
0	7844	144.52	1.52
0	7903	145.52	1.52
0	7969	146.52	1.52
0	8031	147.52	1.52
0	8091	148.52	1.52
0	8151	149.52	1.52
0	8211	150.52	1.52
0	8273	151.52	1.52
0	8334	152.52	1.52
0	8401	153.52	1.52
0	8466	154.52	1.52
0	8530	155.52	1.52
0	8593	156.52	1.52
0	8656	157.52	1.52
0	8719	158.52	1.52
0	8790	159.52	1.52
0	8854	160.52	1.52
0	8917	161.52	1.52
0	8979	162.52	1.52
0	9040	163.52	1.52
0	9109	164.52	1.52
0	9172	165.52	1.52
0	9239	166.52	1.52
0	9303	167.52	1.52
0	9367	168.52	1.52
0	9434	169.52	1.52
0	9498	170.52	1.52
0	9561	171.52	1.52
0	9614	172.52	1.52
0	9667	173.52	1.52
0	9720	174.52	1.52
0	9770	175.52	1.52
0	9820	176.52	1.52
0	9869	177.52	1.52
0	9918	178.52	1.52
0	9967	179.52	1.52
0	10018	180.52	1.52
0	10068	181.52	1.52
0	10142	182.52	1.52
0	10195	183.52	1.52
0	10256	184.52	1.52
0	10308	185.52	1.52
0	10364	186.52	1.52
0	10457	187.52	1.52
0	10509	188.52	1.52
0	10566	189.52	1.52
0	10623	190.52	1.52
0	10678	191.52	1.52
0	10729	192.52	1.52
0	10855	194.84	2.84
0	10856	194.84	1.84
0	10929	195.84	1.84
0	10996	196.84	1.84
0	11063	197.84	1.84
0	11129	198.84	1.84
0	11195	199.84	1.84
0	11259	200.84	1.84
0	11320	201.84	1.84
0	11381	202.84	1.84
0	11442	203.84	1.84
0	11531	204.84	1.84
0	11598	205.84	1.84
0	11665	206.84	1.84
0	11729	207.84	1.84
0	11782	208.47	1.47
0	11845	209.47	1.47
0	11908	210.47	1.47
0	11970	211.47	1.47
0	12032	212.47	1.47
0	12097	213.47	1.47
0	12150	214.47	1.47
0	12203	215.47	1.47
0	12258	216.47	1.47
0	12312	217.47	1.47
0	12366	218.47	1.47
0	12419	219.47	1.47
0	12471	220.47	1.47
0	12520	221.47	1.47
0	12603	223.6	1.6
0	12657	224.6	1.6
0	12712	225.6	1.6
0	12766	226.6	1.6
0	12821	227.6	1.6
0	12876	228.6	1.6
0	12930	229.6	1.6
0	12984	230.6	1.6
0	13038	231.6	1.6
0	13092	232.6	1.6
0	13144	233.6	1.6
0	13195	234.6	1.6
0	13244	235.6	1.6
0	13296	236.6	1.6
0	13344	237.6	1.6
0	13397	238.6	1.6
0	13444	239.2	18.2
0	13486	239.6	1.6
0	13559	240.6	1.6
0	13657	241.6	1.6
0	13727	242.6	1.6
0	13789	243.6	1.6
0	13851	244.6	1.6
0	13915	245.6	1.6
0	13976	246.6	1.6
0	14038	247.6	1.6
0	14100	248.6	1.6
0	14160	249.6	1.6
0	14220	250.6	1.6
0	14280	251.6	1.6
0	14340	252.6	1.6
0	14389	253.6	1.6

