version 2
run General-0-20250127-19:52:36-5538
attr configname General
attr datetime 20250127-19:52:36
attr experiment General
attr inifile shaw_mine.ini
attr iterationvars ""
attr iterationvarsf ""
attr measurement ""
attr network src.dtnsim
attr processid 5538
attr repetition 0
attr replication #0
attr resultdir results
attr runnumber 0
attr seedset 0
param dtnsim.central.contactsFile "\"contactPlan/Contacts.txt\""
param dtnsim.central.contactsFile_A "\"contactPlan/Contacts.txt\""
param dtnsim.central.contactsFile_B "\"contactPlan/Contacts.txt\""
param dtnsim.central.contactIdsToDelete "\"7 9 15 16 18 21 24 25 45 50 53 56 59 66 68 77 79 81 91 94 95 96 97 102 106 111 115 122 127 128 129 130 131 132 134 135 136 137 139 148 150 152 153 156 161 162 164 165 168 172 173 182 185 186 199 200 205 211 214 220 231 234 237 243 244 247 249 252 256 257 262 268 280 283 291 293 298 302 304 316 329 330 331 335 336 348 349 358 359 360 361 366 368 371 373 376 380 383 384 388\""
param dtnsim.central.contactIdsToDelete_from_celestialA "\"9 15 25 50 53 56 59 66 77 79 95 96 97 102 106 127 129 132 136 137 139 148 156 161 165 182 186 199 205 220 234 237 244 247 256 257 280 283 291 293 298 304 316 331 335 349 360 368 371 373 380 384 388\""
param dtnsim.central.contactIdsToDelete_from_celestialB "\"7 16 18 21 24 45 68 81 91 94 111 115 122 128 130 131 134 135 150 152 153 162 164 168 172 173 185 200 211 214 231 243 249 252 262 268 302 329 330 336 348 358 359 361 366 376 383\""
param dtnsim.central.celestialA_nodes "\"1 2 3\""
param dtnsim.central.celestialB_nodes "\"4 5 6\""
param dtnsim.central.locallyfaultsAware true
param dtnsim.central.mode_two_celestial true
param dtnsim.central.faultsAware false
param dtnsim.nodesNumber 6
param dtnsim.node[1].icon "\"receiverdish\""
param dtnsim.node[2..5].icon "\"satellite\""
param dtnsim.node[6].icon "\"receiverdish\""
param dtnsim.node[*].dtn.routing "\"cgrModel350\""
param dtnsim.node[*].dtn.routingType "\"routeListType:allPaths-firstEnding,volumeAware:allContacts,extensionBlock:on,contactPlan:global\""
param dtnsim.node[1].app.enable true
param dtnsim.node[1].app.custodyTransfer true
param dtnsim.node[1].app.bundlesNumber "\"2000\""
param dtnsim.node[1].app.start "\"0\""
param dtnsim.node[1].app.destinationEid "\"6\""
param dtnsim.node[1].app.size "\"1500\""
param dtnsim.node[1].app.interval 10
param dtnsim.node[*].app.custodyTimeout 10000
param dtnsim.node[1].app.ttl 20000

vector 0 dtnsim.node[6].app appBundleReceivedDelayvec:vector ETV
attr interpolationmode none
attr source appBundleReceivedDelay
attr title "appBundleReceivedDelayvec, vector"
0	1638	531.21	531.21
0	1639	531.21	521.21
0	1640	531.21	511.21
0	1641	531.21	501.21
0	1642	531.21	491.21
0	1643	531.21	481.21
0	1644	531.21	471.21
0	1645	531.21	461.21
0	1646	531.21	451.21
0	1647	531.21	441.21
0	1648	531.21	431.21
0	1649	531.21	421.21
0	1650	531.21	411.21
0	1651	531.21	401.21
0	1652	531.21	391.21
0	1653	531.21	381.21
0	1654	531.21	371.21
0	1655	531.21	361.21
0	1656	531.21	351.21
0	1657	531.21	341.21
0	1658	531.21	331.21
0	1659	531.21	321.21
0	1660	531.21	311.21
0	1661	531.21	301.21
0	1662	531.21	291.21
0	1663	531.21	281.21
0	1664	531.21	271.21
0	1665	531.21	261.21
0	1666	531.21	251.21
0	1667	531.21	241.21
0	1668	531.21	231.21
0	1669	531.21	221.21
0	1670	531.21	211.21
0	1671	531.21	201.21
0	1884	540.21	200.21
0	1936	550.21	200.21
0	1986	560.21	200.21
0	2039	570.21	200.21
0	2092	580.21	200.21
0	2143	590.21	200.21
0	2194	600.21	200.21
0	2245	610.21	200.21
0	2296	620.21	200.21
0	2347	630.21	200.21
0	2874	631.21	631.21
0	2875	631.21	621.21
0	2876	631.21	611.21
0	2877	631.21	601.21
0	2878	631.21	591.21
0	2879	631.21	581.21
0	2880	631.21	571.21
0	2881	631.21	561.21
0	2882	631.21	551.21
0	2883	631.21	541.21
0	2884	631.21	531.21
0	2885	631.21	521.21
0	2886	631.21	511.21
0	2887	631.21	501.21
0	2888	631.21	491.21
0	2889	631.21	481.21
0	2890	631.21	471.21
0	2891	631.21	461.21
0	2892	631.21	451.21
0	2893	631.21	441.21
0	2894	631.21	431.21
0	2895	631.21	421.21
0	2896	631.21	411.21
0	2897	631.21	401.21
0	2898	631.21	391.21
0	2899	631.21	381.21
0	2900	631.21	371.21
0	2901	631.21	361.21
0	2902	631.21	351.21
0	2903	631.21	341.21
0	2904	631.21	331.21
0	2905	631.21	321.21
0	2906	631.21	311.21
0	2907	631.21	301.21
0	3136	640.21	300.21
0	3137	640.21	200.21
0	3208	650.21	300.21
0	3209	650.21	200.21
0	3280	660.21	300.21
0	3281	660.21	200.21
0	3352	670.21	300.21
0	3353	670.21	200.21
0	3424	680.21	300.21
0	3425	680.21	200.21
0	3496	690.21	300.21
0	3497	690.21	200.21
0	3568	700.21	300.21
0	3569	700.21	200.21
0	3640	710.21	300.21
0	3641	710.21	200.21
0	3712	720.21	300.21
0	3713	720.21	200.21
0	3784	730.21	300.21
0	3785	730.21	200.21
0	4317	731.21	731.21
0	4318	731.21	721.21
0	4319	731.21	711.21
0	4320	731.21	701.21
0	4321	731.21	691.21
0	4322	731.21	681.21
0	4323	731.21	671.21
0	4324	731.21	661.21
0	4325	731.21	651.21
0	4326	731.21	641.21
0	4327	731.21	631.21
0	4328	731.21	621.21
0	4329	731.21	611.21
0	4330	731.21	601.21
0	4331	731.21	591.21
0	4332	731.21	581.21
0	4333	731.21	571.21
0	4334	731.21	561.21
0	4335	731.21	551.21
0	4336	731.21	541.21
0	4337	731.21	531.21
0	4338	731.21	521.21
0	4339	731.21	511.21
0	4340	731.21	501.21
0	4341	731.21	491.21
0	4342	731.21	481.21
0	4343	731.21	471.21
0	4344	731.21	461.21
0	4345	731.21	451.21
0	4346	731.21	441.21
0	4347	731.21	431.21
0	4348	731.21	421.21
0	4349	731.21	411.21
0	4350	731.21	401.21
0	4662	740.21	400.21
0	4663	740.21	300.21
0	4664	740.21	200.21
0	4757	750.21	400.21
0	4758	750.21	300.21
0	4759	750.21	200.21
0	4852	760.21	400.21
0	4853	760.21	300.21
0	4854	760.21	200.21
0	4947	770.21	400.21
0	4948	770.21	300.21
0	4949	770.21	200.21
0	5042	780.21	400.21
0	5043	780.21	300.21
0	5044	780.21	200.21
0	5137	790.21	400.21
0	5138	790.21	300.21
0	5139	790.21	200.21
0	5232	800.21	400.21
0	5233	800.21	300.21
0	5234	800.21	200.21
0	5327	810.21	400.21
0	5328	810.21	300.21
0	5329	810.21	200.21
0	5422	820.21	400.21
0	5423	820.21	300.21
0	5424	820.21	200.21
0	5517	830.21	400.21
0	5518	830.21	300.21
0	5519	830.21	200.21
0	5952	831.21	831.21
0	5953	831.21	821.21
0	5954	831.21	811.21
0	5955	831.21	801.21
0	5956	831.21	791.21
0	5957	831.21	781.21
0	5958	831.21	771.21
0	5959	831.21	761.21
0	5960	831.21	751.21
0	5961	831.21	741.21
0	5962	831.21	731.21
0	5963	831.21	721.21
0	5964	831.21	711.21
0	5965	831.21	701.21
0	5966	831.21	691.21
0	5967	831.21	681.21
0	5968	831.21	671.21
0	5969	831.21	661.21
0	5970	831.21	651.21
0	5971	831.21	641.21
0	5972	831.21	631.21
0	5973	831.21	621.21
0	5974	831.21	611.21
0	5975	831.21	601.21
0	5976	831.21	591.21
0	5977	831.21	581.21
0	5978	831.21	571.21
0	5979	831.21	561.21
0	5980	831.21	551.21
0	5981	831.21	541.21
0	5982	831.21	531.21
0	5983	831.21	521.21
0	5984	831.21	511.21
0	5985	831.21	501.21
0	6309	840.21	500.21
0	6310	840.21	400.21
0	6311	840.21	300.21
0	6312	840.21	200.21
0	6424	850.21	500.21
0	6425	850.21	400.21
0	6426	850.21	300.21
0	6427	850.21	200.21
0	6539	860.21	500.21
0	6540	860.21	400.21
0	6541	860.21	300.21
0	6542	860.21	200.21
0	6654	870.21	500.21
0	6655	870.21	400.21
0	6656	870.21	300.21
0	6657	870.21	200.21
0	6769	880.21	500.21
0	6770	880.21	400.21
0	6771	880.21	300.21
0	6772	880.21	200.21
0	6884	890.21	500.21
0	6885	890.21	400.21
0	6886	890.21	300.21
0	6887	890.21	200.21
0	6999	900.21	500.21
0	7000	900.21	400.21
0	7001	900.21	300.21
0	7002	900.21	200.21
0	7114	910.21	500.21
0	7115	910.21	400.21
0	7116	910.21	300.21
0	7117	910.21	200.21
0	7229	920.21	500.21
0	7230	920.21	400.21
0	7231	920.21	300.21
0	7232	920.21	200.21
0	7344	930.21	500.21
0	7345	930.21	400.21
0	7346	930.21	300.21
0	7347	930.21	200.21
0	7753	931.21	931.21
0	7754	931.21	921.21
0	7755	931.21	911.21
0	7756	931.21	901.21
0	7757	931.21	891.21
0	7758	931.21	881.21
0	7759	931.21	871.21
0	7760	931.21	861.21
0	7761	931.21	851.21
0	7762	931.21	841.21
0	7763	931.21	831.21
0	7764	931.21	821.21
0	7765	931.21	811.21
0	7766	931.21	801.21
0	7767	931.21	791.21
0	7768	931.21	781.21
0	7769	931.21	771.21
0	7770	931.21	761.21
0	7771	931.21	751.21
0	7772	931.21	741.21
0	7773	931.21	731.21
0	7774	931.21	721.21
0	7775	931.21	711.21
0	7776	931.21	701.21
0	7777	931.21	691.21
0	7778	931.21	681.21
0	7779	931.21	671.21
0	7780	931.21	661.21
0	7781	931.21	651.21
0	7782	931.21	641.21
0	7783	931.21	631.21
0	7784	931.21	621.21
0	7785	931.21	611.21
0	7786	931.21	601.21
0	8121	940.21	600.21
0	8122	940.21	500.21
0	8123	940.21	400.21
0	8124	940.21	300.21
0	8125	940.21	200.21
0	8255	950.21	600.21
0	8256	950.21	500.21
0	8257	950.21	400.21
0	8258	950.21	300.21
0	8259	950.21	200.21
0	8389	960.21	600.21
0	8390	960.21	500.21
0	8391	960.21	400.21
0	8392	960.21	300.21
0	8393	960.21	200.21
0	8523	970.21	600.21
0	8524	970.21	500.21
0	8525	970.21	400.21
0	8526	970.21	300.21
0	8527	970.21	200.21
0	8657	980.21	600.21
0	8658	980.21	500.21
0	8659	980.21	400.21
0	8660	980.21	300.21
0	8661	980.21	200.21
0	8791	990.21	600.21
0	8792	990.21	500.21
0	8793	990.21	400.21
0	8794	990.21	300.21
0	8795	990.21	200.21
0	8925	1000.21	600.21
0	8926	1000.21	500.21
0	8927	1000.21	400.21
0	8928	1000.21	300.21
0	8929	1000.21	200.21
0	9059	1010.21	600.21
0	9060	1010.21	500.21
0	9061	1010.21	400.21
0	9062	1010.21	300.21
0	9063	1010.21	200.21
0	9193	1020.21	600.21
0	9194	1020.21	500.21
0	9195	1020.21	400.21
0	9196	1020.21	300.21
0	9197	1020.21	200.21
0	9327	1030.21	600.21
0	9328	1030.21	500.21
0	9329	1030.21	400.21
0	9330	1030.21	300.21
0	9331	1030.21	200.21
0	9564	1040.21	600.21
0	9565	1040.21	500.21
0	9566	1040.21	400.21
0	9567	1040.21	300.21
0	9568	1040.21	200.21
0	9701	1050.21	600.21
0	9702	1050.21	500.21
0	9703	1050.21	400.21
0	9704	1050.21	300.21
0	9705	1050.21	200.21
0	9838	1060.21	600.21
0	9839	1060.21	500.21
0	9840	1060.21	400.21
0	9841	1060.21	300.21
0	9842	1060.21	200.21
0	9975	1070.21	600.21
0	9976	1070.21	500.21
0	9977	1070.21	400.21
0	9978	1070.21	300.21
0	9979	1070.21	200.21
0	10112	1080.21	600.21
0	10113	1080.21	500.21
0	10114	1080.21	400.21
0	10115	1080.21	300.21
0	10116	1080.21	200.21
0	10249	1090.21	600.21
0	10250	1090.21	500.21
0	10251	1090.21	400.21
0	10252	1090.21	300.21
0	10253	1090.21	200.21
0	10386	1100.21	600.21
0	10387	1100.21	500.21
0	10388	1100.21	400.21
0	10389	1100.21	300.21
0	10390	1100.21	200.21
0	10523	1110.21	600.21
0	10524	1110.21	500.21
0	10525	1110.21	400.21
0	10526	1110.21	300.21
0	10527	1110.21	200.21
0	10660	1120.21	600.21
0	10661	1120.21	500.21
0	10662	1120.21	400.21
0	10663	1120.21	300.21
0	10664	1120.21	200.21
0	10797	1130.21	600.21
0	10798	1130.21	500.21
0	10799	1130.21	400.21
0	10800	1130.21	300.21
0	10801	1130.21	200.21
0	11002	1140.21	600.21
0	11003	1140.21	500.21
0	11004	1140.21	400.21
0	11005	1140.21	300.21
0	11006	1140.21	200.21
0	11141	1150.21	600.21
0	11142	1150.21	500.21
0	11143	1150.21	400.21
0	11144	1150.21	300.21
0	11145	1150.21	200.21
0	11280	1160.21	600.21
0	11281	1160.21	500.21
0	11282	1160.21	400.21
0	11283	1160.21	300.21
0	11284	1160.21	200.21
0	11419	1170.21	600.21
0	11420	1170.21	500.21
0	11421	1170.21	400.21
0	11422	1170.21	300.21
0	11423	1170.21	200.21
0	11558	1180.21	600.21
0	11559	1180.21	500.21
0	11560	1180.21	400.21
0	11561	1180.21	300.21
0	11562	1180.21	200.21
0	11697	1190.21	600.21
0	11698	1190.21	500.21
0	11699	1190.21	400.21
0	11700	1190.21	300.21
0	11701	1190.21	200.21
0	11836	1200.21	600.21
0	11837	1200.21	500.21
0	11838	1200.21	400.21
0	11839	1200.21	300.21
0	11840	1200.21	200.21
0	11975	1210.21	600.21
0	11976	1210.21	500.21
0	11977	1210.21	400.21
0	11978	1210.21	300.21
0	11979	1210.21	200.21
0	12114	1220.21	600.21
0	12115	1220.21	500.21
0	12116	1220.21	400.21
0	12117	1220.21	300.21
0	12118	1220.21	200.21
0	12253	1230.21	600.21
0	12254	1230.21	500.21
0	12255	1230.21	400.21
0	12256	1230.21	300.21
0	12257	1230.21	200.21
0	12392	1240.21	600.21
0	12393	1240.21	500.21
0	12394	1240.21	400.21
0	12395	1240.21	300.21
0	12396	1240.21	200.21
0	12531	1250.21	600.21
0	12532	1250.21	500.21
0	12533	1250.21	400.21
0	12534	1250.21	300.21
0	12535	1250.21	200.21
0	12670	1260.21	600.21
0	12671	1260.21	500.21
0	12672	1260.21	400.21
0	12673	1260.21	300.21
0	12674	1260.21	200.21
0	12809	1270.21	600.21
0	12810	1270.21	500.21
0	12811	1270.21	400.21
0	12812	1270.21	300.21
0	12813	1270.21	200.21
0	12948	1280.21	600.21
0	12949	1280.21	500.21
0	12950	1280.21	400.21
0	12951	1280.21	300.21
0	12952	1280.21	200.21
0	13087	1290.21	600.21
0	13088	1290.21	500.21
0	13089	1290.21	400.21
0	13090	1290.21	300.21
0	13091	1290.21	200.21
0	13226	1300.21	600.21
0	13227	1300.21	500.21
0	13228	1300.21	400.21
0	13229	1300.21	300.21
0	13230	1300.21	200.21
0	13365	1310.21	600.21
0	13366	1310.21	500.21
0	13367	1310.21	400.21
0	13368	1310.21	300.21
0	13369	1310.21	200.21
0	13504	1320.21	600.21
0	13505	1320.21	500.21
0	13506	1320.21	400.21
0	13507	1320.21	300.21
0	13508	1320.21	200.21
0	13643	1330.21	600.21
0	13644	1330.21	500.21
0	13645	1330.21	400.21
0	13646	1330.21	300.21
0	13647	1330.21	200.21
0	13782	1340.21	600.21
0	13783	1340.21	500.21
0	13784	1340.21	400.21
0	13785	1340.21	300.21
0	13786	1340.21	200.21
0	13921	1350.21	600.21
0	13922	1350.21	500.21
0	13923	1350.21	400.21
0	13924	1350.21	300.21
0	13925	1350.21	200.21
0	14060	1360.21	600.21
0	14061	1360.21	500.21
0	14062	1360.21	400.21
0	14063	1360.21	300.21
0	14064	1360.21	200.21
0	14199	1370.21	600.21
0	14200	1370.21	500.21
0	14201	1370.21	400.21
0	14202	1370.21	300.21
0	14203	1370.21	200.21
0	14338	1380.21	600.21
0	14339	1380.21	500.21
0	14340	1380.21	400.21
0	14341	1380.21	300.21
0	14342	1380.21	200.21
0	14477	1390.21	600.21
0	14478	1390.21	500.21
0	14479	1390.21	400.21
0	14480	1390.21	300.21
0	14481	1390.21	200.21
0	14616	1400.21	600.21
0	14617	1400.21	500.21
0	14618	1400.21	400.21
0	14619	1400.21	300.21
0	14620	1400.21	200.21
0	14755	1410.21	600.21
0	14756	1410.21	500.21
0	14757	1410.21	400.21
0	14758	1410.21	300.21
0	14759	1410.21	200.21
0	14894	1420.21	600.21
0	14895	1420.21	500.21
0	14896	1420.21	400.21
0	14897	1420.21	300.21
0	14898	1420.21	200.21
0	15033	1430.21	600.21
0	15034	1430.21	500.21
0	15035	1430.21	400.21
0	15036	1430.21	300.21
0	15037	1430.21	200.21
0	15172	1440.21	600.21
0	15173	1440.21	500.21
0	15174	1440.21	400.21
0	15175	1440.21	300.21
0	15176	1440.21	200.21
0	15311	1450.21	600.21
0	15312	1450.21	500.21
0	15313	1450.21	400.21
0	15314	1450.21	300.21
0	15315	1450.21	200.21
0	15450	1460.21	600.21
0	15451	1460.21	500.21
0	15452	1460.21	400.21
0	15453	1460.21	300.21
0	15454	1460.21	200.21
0	15589	1470.21	600.21
0	15590	1470.21	500.21
0	15591	1470.21	400.21
0	15592	1470.21	300.21
0	15593	1470.21	200.21
0	15728	1480.21	600.21
0	15729	1480.21	500.21
0	15730	1480.21	400.21
0	15731	1480.21	300.21
0	15732	1480.21	200.21
0	15867	1490.21	600.21
0	15868	1490.21	500.21
0	15869	1490.21	400.21
0	15870	1490.21	300.21
0	15871	1490.21	200.21
0	16006	1500.21	600.21
0	16007	1500.21	500.21
0	16008	1500.21	400.21
0	16009	1500.21	300.21
0	16010	1500.21	200.21
0	16145	1510.21	600.21
0	16146	1510.21	500.21
0	16147	1510.21	400.21
0	16148	1510.21	300.21
0	16149	1510.21	200.21
0	16284	1520.21	600.21
0	16285	1520.21	500.21
0	16286	1520.21	400.21
0	16287	1520.21	300.21
0	16288	1520.21	200.21
0	16423	1530.21	600.21
0	16424	1530.21	500.21
0	16425	1530.21	400.21
0	16426	1530.21	300.21
0	16427	1530.21	200.21
0	16562	1540.21	600.21
0	16563	1540.21	500.21
0	16564	1540.21	400.21
0	16565	1540.21	300.21
0	16566	1540.21	200.21
0	16701	1550.21	600.21
0	16702	1550.21	500.21
0	16703	1550.21	400.21
0	16704	1550.21	300.21
0	16705	1550.21	200.21
0	16840	1560.21	600.21
0	16841	1560.21	500.21
0	16842	1560.21	400.21
0	16843	1560.21	300.21
0	16844	1560.21	200.21
0	16979	1570.21	600.21
0	16980	1570.21	500.21
0	16981	1570.21	400.21
0	16982	1570.21	300.21
0	16983	1570.21	200.21
0	17118	1580.21	600.21
0	17119	1580.21	500.21
0	17120	1580.21	400.21
0	17121	1580.21	300.21
0	17122	1580.21	200.21
0	17257	1590.21	600.21
0	17258	1590.21	500.21
0	17259	1590.21	400.21
0	17260	1590.21	300.21
0	17261	1590.21	200.21
0	17396	1600.21	600.21
0	17397	1600.21	500.21
0	17398	1600.21	400.21
0	17399	1600.21	300.21
0	17400	1600.21	200.21
0	17535	1610.21	600.21
0	17536	1610.21	500.21
0	17537	1610.21	400.21
0	17538	1610.21	300.21
0	17539	1610.21	200.21
0	17674	1620.21	600.21
0	17675	1620.21	500.21
0	17676	1620.21	400.21
0	17677	1620.21	300.21
0	17678	1620.21	200.21
0	17813	1630.21	600.21
0	17814	1630.21	500.21
0	17815	1630.21	400.21
0	17816	1630.21	300.21
0	17817	1630.21	200.21
0	17952	1640.21	600.21
0	17953	1640.21	500.21
0	17954	1640.21	400.21
0	17955	1640.21	300.21
0	17956	1640.21	200.21
0	18091	1650.21	600.21
0	18092	1650.21	500.21
0	18093	1650.21	400.21
0	18094	1650.21	300.21
0	18095	1650.21	200.21
0	18230	1660.21	600.21
0	18231	1660.21	500.21
0	18232	1660.21	400.21
0	18233	1660.21	300.21
0	18234	1660.21	200.21
0	18369	1670.21	600.21
0	18370	1670.21	500.21
0	18371	1670.21	400.21
0	18372	1670.21	300.21
0	18373	1670.21	200.21
0	18508	1680.21	600.21
0	18509	1680.21	500.21
0	18510	1680.21	400.21
0	18511	1680.21	300.21
0	18512	1680.21	200.21
0	18647	1690.21	600.21
0	18648	1690.21	500.21
0	18649	1690.21	400.21
0	18650	1690.21	300.21
0	18651	1690.21	200.21
0	18786	1700.21	600.21
0	18787	1700.21	500.21
0	18788	1700.21	400.21
0	18789	1700.21	300.21
0	18790	1700.21	200.21
0	18925	1710.21	600.21
0	18926	1710.21	500.21
0	18927	1710.21	400.21
0	18928	1710.21	300.21
0	18929	1710.21	200.21
0	19064	1720.21	600.21
0	19065	1720.21	500.21
0	19066	1720.21	400.21
0	19067	1720.21	300.21
0	19068	1720.21	200.21
0	19203	1730.21	600.21
0	19204	1730.21	500.21
0	19205	1730.21	400.21
0	19206	1730.21	300.21
0	19207	1730.21	200.21
0	19342	1740.21	600.21
0	19343	1740.21	500.21
0	19344	1740.21	400.21
0	19345	1740.21	300.21
0	19346	1740.21	200.21
0	19481	1750.21	600.21
0	19482	1750.21	500.21
0	19483	1750.21	400.21
0	19484	1750.21	300.21
0	19485	1750.21	200.21
0	19620	1760.21	600.21
0	19621	1760.21	500.21
0	19622	1760.21	400.21
0	19623	1760.21	300.21
0	19624	1760.21	200.21
0	19759	1770.21	600.21
0	19760	1770.21	500.21
0	19761	1770.21	400.21
0	19762	1770.21	300.21
0	19763	1770.21	200.21
0	19898	1780.21	600.21
0	19899	1780.21	500.21
0	19900	1780.21	400.21
0	19901	1780.21	300.21
0	19902	1780.21	200.21
0	20037	1790.21	600.21
0	20038	1790.21	500.21
0	20039	1790.21	400.21
0	20040	1790.21	300.21
0	20041	1790.21	200.21
0	20176	1800.21	600.21
0	20177	1800.21	500.21
0	20178	1800.21	400.21
0	20179	1800.21	300.21
0	20180	1800.21	200.21
0	20315	1810.21	600.21
0	20316	1810.21	500.21
0	20317	1810.21	400.21
0	20318	1810.21	300.21
0	20319	1810.21	200.21
0	20454	1820.21	600.21
0	20455	1820.21	500.21
0	20456	1820.21	400.21
0	20457	1820.21	300.21
0	20458	1820.21	200.21
0	20593	1830.21	600.21
0	20594	1830.21	500.21
0	20595	1830.21	400.21
0	20596	1830.21	300.21
0	20597	1830.21	200.21
0	20732	1840.21	600.21
0	20733	1840.21	500.21
0	20734	1840.21	400.21
0	20735	1840.21	300.21
0	20736	1840.21	200.21
0	20871	1850.21	600.21
0	20872	1850.21	500.21
0	20873	1850.21	400.21
0	20874	1850.21	300.21
0	20875	1850.21	200.21
0	21010	1860.21	600.21
0	21011	1860.21	500.21
0	21012	1860.21	400.21
0	21013	1860.21	300.21
0	21014	1860.21	200.21
0	21149	1870.21	600.21
0	21150	1870.21	500.21
0	21151	1870.21	400.21
0	21152	1870.21	300.21
0	21153	1870.21	200.21
0	21288	1880.21	600.21
0	21289	1880.21	500.21
0	21290	1880.21	400.21
0	21291	1880.21	300.21
0	21292	1880.21	200.21
0	21427	1890.21	600.21
0	21428	1890.21	500.21
0	21429	1890.21	400.21
0	21430	1890.21	300.21
0	21431	1890.21	200.21
0	21566	1900.21	600.21
0	21567	1900.21	500.21
0	21568	1900.21	400.21
0	21569	1900.21	300.21
0	21570	1900.21	200.21
0	21705	1910.21	600.21
0	21706	1910.21	500.21
0	21707	1910.21	400.21
0	21708	1910.21	300.21
0	21709	1910.21	200.21
0	21844	1920.21	600.21
0	21845	1920.21	500.21
0	21846	1920.21	400.21
0	21847	1920.21	300.21
0	21848	1920.21	200.21
0	21983	1930.21	600.21
0	21984	1930.21	500.21
0	21985	1930.21	400.21
0	21986	1930.21	300.21
0	21987	1930.21	200.21
0	22122	1940.21	600.21
0	22123	1940.21	500.21
0	22124	1940.21	400.21
0	22125	1940.21	300.21
0	22126	1940.21	200.21
0	22261	1950.21	600.21
0	22262	1950.21	500.21
0	22263	1950.21	400.21
0	22264	1950.21	300.21
0	22265	1950.21	200.21
0	22400	1960.21	600.21
0	22401	1960.21	500.21
0	22402	1960.21	400.21
0	22403	1960.21	300.21
0	22404	1960.21	200.21
0	22539	1970.21	600.21
0	22540	1970.21	500.21
0	22541	1970.21	400.21
0	22542	1970.21	300.21
0	22543	1970.21	200.21
0	22678	1980.21	600.21
0	22679	1980.21	500.21
0	22680	1980.21	400.21
0	22681	1980.21	300.21
0	22682	1980.21	200.21
0	22817	1990.21	600.21
0	22818	1990.21	500.21
0	22819	1990.21	400.21
0	22820	1990.21	300.21
0	22821	1990.21	200.21
0	22956	2000.21	600.21
0	22957	2000.21	500.21
0	22958	2000.21	400.21
0	22959	2000.21	300.21
0	22960	2000.21	200.21
0	23095	2010.21	600.21
0	23096	2010.21	500.21
0	23097	2010.21	400.21
0	23098	2010.21	300.21
0	23099	2010.21	200.21
0	23234	2020.21	600.21
0	23235	2020.21	500.21
0	23236	2020.21	400.21
0	23237	2020.21	300.21
0	23238	2020.21	200.21
0	23373	2030.21	600.21
0	23374	2030.21	500.21
0	23375	2030.21	400.21
0	23376	2030.21	300.21
0	23377	2030.21	200.21
0	23512	2040.21	600.21
0	23513	2040.21	500.21
0	23514	2040.21	400.21
0	23515	2040.21	300.21
0	23516	2040.21	200.21
0	23651	2050.21	600.21
0	23652	2050.21	500.21
0	23653	2050.21	400.21
0	23654	2050.21	300.21
0	23655	2050.21	200.21
0	23790	2060.21	600.21
0	23791	2060.21	500.21
0	23792	2060.21	400.21
0	23793	2060.21	300.21
0	23794	2060.21	200.21
0	23929	2070.21	600.21
0	23930	2070.21	500.21
0	23931	2070.21	400.21
0	23932	2070.21	300.21
0	23933	2070.21	200.21
0	24068	2080.21	600.21
0	24069	2080.21	500.21
0	24070	2080.21	400.21
0	24071	2080.21	300.21
0	24072	2080.21	200.21
0	24207	2090.21	600.21
0	24208	2090.21	500.21
0	24209	2090.21	400.21
0	24210	2090.21	300.21
0	24211	2090.21	200.21
0	24346	2100.21	600.21
0	24347	2100.21	500.21
0	24348	2100.21	400.21
0	24349	2100.21	300.21
0	24350	2100.21	200.21
0	24485	2110.21	600.21
0	24486	2110.21	500.21
0	24487	2110.21	400.21
0	24488	2110.21	300.21
0	24489	2110.21	200.21
0	24624	2120.21	600.21
0	24625	2120.21	500.21
0	24626	2120.21	400.21
0	24627	2120.21	300.21
0	24628	2120.21	200.21
0	24763	2130.21	600.21
0	24764	2130.21	500.21
0	24765	2130.21	400.21
0	24766	2130.21	300.21
0	24767	2130.21	200.21
0	24902	2140.21	600.21
0	24903	2140.21	500.21
0	24904	2140.21	400.21
0	24905	2140.21	300.21
0	24906	2140.21	200.21
0	25041	2150.21	600.21
0	25042	2150.21	500.21
0	25043	2150.21	400.21
0	25044	2150.21	300.21
0	25045	2150.21	200.21
0	25180	2160.21	600.21
0	25181	2160.21	500.21
0	25182	2160.21	400.21
0	25183	2160.21	300.21
0	25184	2160.21	200.21
0	25319	2170.21	600.21
0	25320	2170.21	500.21
0	25321	2170.21	400.21
0	25322	2170.21	300.21
0	25323	2170.21	200.21
0	25458	2180.21	600.21
0	25459	2180.21	500.21
0	25460	2180.21	400.21
0	25461	2180.21	300.21
0	25462	2180.21	200.21
0	25597	2190.21	600.21
0	25598	2190.21	500.21
0	25599	2190.21	400.21
0	25600	2190.21	300.21
0	25601	2190.21	200.21
0	25736	2200.21	600.21
0	25737	2200.21	500.21
0	25738	2200.21	400.21
0	25739	2200.21	300.21
0	25740	2200.21	200.21
0	25875	2210.21	600.21
0	25876	2210.21	500.21
0	25877	2210.21	400.21
0	25878	2210.21	300.21
0	25879	2210.21	200.21
0	26014	2220.21	600.21
0	26015	2220.21	500.21
0	26016	2220.21	400.21
0	26017	2220.21	300.21
0	26018	2220.21	200.21
0	26153	2230.21	600.21
0	26154	2230.21	500.21
0	26155	2230.21	400.21
0	26156	2230.21	300.21
0	26157	2230.21	200.21
0	26292	2240.21	600.21
0	26293	2240.21	500.21
0	26294	2240.21	400.21
0	26295	2240.21	300.21
0	26296	2240.21	200.21
0	26431	2250.21	600.21
0	26432	2250.21	500.21
0	26433	2250.21	400.21
0	26434	2250.21	300.21
0	26435	2250.21	200.21
0	26570	2260.21	600.21
0	26571	2260.21	500.21
0	26572	2260.21	400.21
0	26573	2260.21	300.21
0	26574	2260.21	200.21
0	26709	2270.21	600.21
0	26710	2270.21	500.21
0	26711	2270.21	400.21
0	26712	2270.21	300.21
0	26713	2270.21	200.21
0	26848	2280.21	600.21
0	26849	2280.21	500.21
0	26850	2280.21	400.21
0	26851	2280.21	300.21
0	26852	2280.21	200.21
0	26987	2290.21	600.21
0	26988	2290.21	500.21
0	26989	2290.21	400.21
0	26990	2290.21	300.21
0	26991	2290.21	200.21
0	27126	2300.21	600.21
0	27127	2300.21	500.21
0	27128	2300.21	400.21
0	27129	2300.21	300.21
0	27130	2300.21	200.21
0	27265	2310.21	600.21
0	27266	2310.21	500.21
0	27267	2310.21	400.21
0	27268	2310.21	300.21
0	27269	2310.21	200.21
0	27404	2320.21	600.21
0	27405	2320.21	500.21
0	27406	2320.21	400.21
0	27407	2320.21	300.21
0	27408	2320.21	200.21
0	27543	2330.21	600.21
0	27544	2330.21	500.21
0	27545	2330.21	400.21
0	27546	2330.21	300.21
0	27547	2330.21	200.21
0	27682	2340.21	600.21
0	27683	2340.21	500.21
0	27684	2340.21	400.21
0	27685	2340.21	300.21
0	27686	2340.21	200.21
0	27821	2350.21	600.21
0	27822	2350.21	500.21
0	27823	2350.21	400.21
0	27824	2350.21	300.21
0	27825	2350.21	200.21
0	27960	2360.21	600.21
0	27961	2360.21	500.21
0	27962	2360.21	400.21
0	27963	2360.21	300.21
0	27964	2360.21	200.21
0	28099	2370.21	600.21
0	28100	2370.21	500.21
0	28101	2370.21	400.21
0	28102	2370.21	300.21
0	28103	2370.21	200.21
0	28238	2380.21	600.21
0	28239	2380.21	500.21
0	28240	2380.21	400.21
0	28241	2380.21	300.21
0	28242	2380.21	200.21
0	28377	2390.21	600.21
0	28378	2390.21	500.21
0	28379	2390.21	400.21
0	28380	2390.21	300.21
0	28381	2390.21	200.21
0	28516	2400.21	600.21
0	28517	2400.21	500.21
0	28518	2400.21	400.21
0	28519	2400.21	300.21
0	28520	2400.21	200.21
0	28655	2410.21	600.21
0	28656	2410.21	500.21
0	28657	2410.21	400.21
0	28658	2410.21	300.21
0	28659	2410.21	200.21
0	28794	2420.21	600.21
0	28795	2420.21	500.21
0	28796	2420.21	400.21
0	28797	2420.21	300.21
0	28798	2420.21	200.21
0	28933	2430.21	600.21
0	28934	2430.21	500.21
0	28935	2430.21	400.21
0	28936	2430.21	300.21
0	28937	2430.21	200.21
0	29072	2440.21	600.21
0	29073	2440.21	500.21
0	29074	2440.21	400.21
0	29075	2440.21	300.21
0	29076	2440.21	200.21
0	29211	2450.21	600.21
0	29212	2450.21	500.21
0	29213	2450.21	400.21
0	29214	2450.21	300.21
0	29215	2450.21	200.21
0	29350	2460.21	600.21
0	29351	2460.21	500.21
0	29352	2460.21	400.21
0	29353	2460.21	300.21
0	29354	2460.21	200.21
0	29489	2470.21	600.21
0	29490	2470.21	500.21
0	29491	2470.21	400.21
0	29492	2470.21	300.21
0	29493	2470.21	200.21
0	29628	2480.21	600.21
0	29629	2480.21	500.21
0	29630	2480.21	400.21
0	29631	2480.21	300.21
0	29632	2480.21	200.21
0	29767	2490.21	600.21
0	29768	2490.21	500.21
0	29769	2490.21	400.21
0	29770	2490.21	300.21
0	29771	2490.21	200.21
0	29906	2500.21	600.21
0	29907	2500.21	500.21
0	29908	2500.21	400.21
0	29909	2500.21	300.21
0	29910	2500.21	200.21
0	30045	2510.21	600.21
0	30046	2510.21	500.21
0	30047	2510.21	400.21
0	30048	2510.21	300.21
0	30049	2510.21	200.21
0	30184	2520.21	600.21
0	30185	2520.21	500.21
0	30186	2520.21	400.21
0	30187	2520.21	300.21
0	30188	2520.21	200.21
0	30323	2530.21	600.21
0	30324	2530.21	500.21
0	30325	2530.21	400.21
0	30326	2530.21	300.21
0	30327	2530.21	200.21
0	30462	2540.21	600.21
0	30463	2540.21	500.21
0	30464	2540.21	400.21
0	30465	2540.21	300.21
0	30466	2540.21	200.21
0	30601	2550.21	600.21
0	30602	2550.21	500.21
0	30603	2550.21	400.21
0	30604	2550.21	300.21
0	30605	2550.21	200.21
0	30740	2560.21	600.21
0	30741	2560.21	500.21
0	30742	2560.21	400.21
0	30743	2560.21	300.21
0	30744	2560.21	200.21
0	30879	2570.21	600.21
0	30880	2570.21	500.21
0	30881	2570.21	400.21
0	30882	2570.21	300.21
0	30883	2570.21	200.21
0	31018	2580.21	600.21
0	31019	2580.21	500.21
0	31020	2580.21	400.21
0	31021	2580.21	300.21
0	31022	2580.21	200.21
0	31157	2590.21	600.21
0	31158	2590.21	500.21
0	31159	2590.21	400.21
0	31160	2590.21	300.21
0	31161	2590.21	200.21
0	31296	2600.21	600.21
0	31297	2600.21	500.21
0	31298	2600.21	400.21
0	31299	2600.21	300.21
0	31300	2600.21	200.21
0	31435	2610.21	600.21
0	31436	2610.21	500.21
0	31437	2610.21	400.21
0	31438	2610.21	300.21
0	31439	2610.21	200.21
0	31574	2620.21	600.21
0	31575	2620.21	500.21
0	31576	2620.21	400.21
0	31577	2620.21	300.21
0	31578	2620.21	200.21
0	31713	2630.21	600.21
0	31714	2630.21	500.21
0	31715	2630.21	400.21
0	31716	2630.21	300.21
0	31717	2630.21	200.21
0	31852	2640.21	600.21
0	31853	2640.21	500.21
0	31854	2640.21	400.21
0	31855	2640.21	300.21
0	31856	2640.21	200.21
0	31991	2650.21	600.21
0	31992	2650.21	500.21
0	31993	2650.21	400.21
0	31994	2650.21	300.21
0	31995	2650.21	200.21
0	32130	2660.21	600.21
0	32131	2660.21	500.21
0	32132	2660.21	400.21
0	32133	2660.21	300.21
0	32134	2660.21	200.21
0	32269	2670.21	600.21
0	32270	2670.21	500.21
0	32271	2670.21	400.21
0	32272	2670.21	300.21
0	32273	2670.21	200.21
0	32408	2680.21	600.21
0	32409	2680.21	500.21
0	32410	2680.21	400.21
0	32411	2680.21	300.21
0	32412	2680.21	200.21
0	32547	2690.21	600.21
0	32548	2690.21	500.21
0	32549	2690.21	400.21
0	32550	2690.21	300.21
0	32551	2690.21	200.21
0	32686	2700.21	600.21
0	32687	2700.21	500.21
0	32688	2700.21	400.21
0	32689	2700.21	300.21
0	32690	2700.21	200.21
0	32825	2710.21	600.21
0	32826	2710.21	500.21
0	32827	2710.21	400.21
0	32828	2710.21	300.21
0	32829	2710.21	200.21
0	32964	2720.21	600.21
0	32965	2720.21	500.21
0	32966	2720.21	400.21
0	32967	2720.21	300.21
0	32968	2720.21	200.21
0	33103	2730.21	600.21
0	33104	2730.21	500.21
0	33105	2730.21	400.21
0	33106	2730.21	300.21
0	33107	2730.21	200.21
0	33242	2740.21	600.21
0	33243	2740.21	500.21
0	33244	2740.21	400.21
0	33245	2740.21	300.21
0	33246	2740.21	200.21
0	33381	2750.21	600.21
0	33382	2750.21	500.21
0	33383	2750.21	400.21
0	33384	2750.21	300.21
0	33385	2750.21	200.21
0	33520	2760.21	600.21
0	33521	2760.21	500.21
0	33522	2760.21	400.21
0	33523	2760.21	300.21
0	33524	2760.21	200.21
0	33659	2770.21	600.21
0	33660	2770.21	500.21
0	33661	2770.21	400.21
0	33662	2770.21	300.21
0	33663	2770.21	200.21
0	33798	2780.21	600.21
0	33799	2780.21	500.21
0	33800	2780.21	400.21
0	33801	2780.21	300.21
0	33802	2780.21	200.21
0	33937	2790.21	600.21
0	33938	2790.21	500.21
0	33939	2790.21	400.21
0	33940	2790.21	300.21
0	33941	2790.21	200.21
0	34076	2800.21	600.21
0	34077	2800.21	500.21
0	34078	2800.21	400.21
0	34079	2800.21	300.21
0	34080	2800.21	200.21
0	34215	2810.21	600.21
0	34216	2810.21	500.21
0	34217	2810.21	400.21
0	34218	2810.21	300.21
0	34219	2810.21	200.21
0	34354	2820.21	600.21
0	34355	2820.21	500.21
0	34356	2820.21	400.21
0	34357	2820.21	300.21
0	34358	2820.21	200.21
0	34493	2830.21	600.21
0	34494	2830.21	500.21
0	34495	2830.21	400.21
0	34496	2830.21	300.21
0	34497	2830.21	200.21
0	34632	2840.21	600.21
0	34633	2840.21	500.21
0	34634	2840.21	400.21
0	34635	2840.21	300.21
0	34636	2840.21	200.21
0	34771	2850.21	600.21
0	34772	2850.21	500.21
0	34773	2850.21	400.21
0	34774	2850.21	300.21
0	34775	2850.21	200.21
0	34910	2860.21	600.21
0	34911	2860.21	500.21
0	34912	2860.21	400.21
0	34913	2860.21	300.21
0	34914	2860.21	200.21
0	35049	2870.21	600.21
0	35050	2870.21	500.21
0	35051	2870.21	400.21
0	35052	2870.21	300.21
0	35053	2870.21	200.21
0	35188	2880.21	600.21
0	35189	2880.21	500.21
0	35190	2880.21	400.21
0	35191	2880.21	300.21
0	35192	2880.21	200.21
0	35327	2890.21	600.21
0	35328	2890.21	500.21
0	35329	2890.21	400.21
0	35330	2890.21	300.21
0	35331	2890.21	200.21
0	35466	2900.21	600.21
0	35467	2900.21	500.21
0	35468	2900.21	400.21
0	35469	2900.21	300.21
0	35470	2900.21	200.21
0	35605	2910.21	600.21
0	35606	2910.21	500.21
0	35607	2910.21	400.21
0	35608	2910.21	300.21
0	35609	2910.21	200.21
0	35744	2920.21	600.21
0	35745	2920.21	500.21
0	35746	2920.21	400.21
0	35747	2920.21	300.21
0	35748	2920.21	200.21
0	35883	2930.21	600.21
0	35884	2930.21	500.21
0	35885	2930.21	400.21
0	35886	2930.21	300.21
0	35887	2930.21	200.21
0	36022	2940.21	600.21
0	36023	2940.21	500.21
0	36024	2940.21	400.21
0	36025	2940.21	300.21
0	36026	2940.21	200.21
0	36161	2950.21	600.21
0	36162	2950.21	500.21
0	36163	2950.21	400.21
0	36164	2950.21	300.21
0	36165	2950.21	200.21
0	36300	2960.21	600.21
0	36301	2960.21	500.21
0	36302	2960.21	400.21
0	36303	2960.21	300.21
0	36304	2960.21	200.21
0	36439	2970.21	600.21
0	36440	2970.21	500.21
0	36441	2970.21	400.21
0	36442	2970.21	300.21
0	36443	2970.21	200.21
0	36578	2980.21	600.21
0	36579	2980.21	500.21
0	36580	2980.21	400.21
0	36581	2980.21	300.21
0	36582	2980.21	200.21
0	36717	2990.21	600.21
0	36718	2990.21	500.21
0	36719	2990.21	400.21
0	36720	2990.21	300.21
0	36721	2990.21	200.21
0	36856	3000.21	600.21
0	36857	3000.21	500.21
0	36858	3000.21	400.21
0	36859	3000.21	300.21
0	36860	3000.21	200.21
0	36995	3010.21	600.21
0	36996	3010.21	500.21
0	36997	3010.21	400.21
0	36998	3010.21	300.21
0	36999	3010.21	200.21
0	37134	3020.21	600.21
0	37135	3020.21	500.21
0	37136	3020.21	400.21
0	37137	3020.21	300.21
0	37138	3020.21	200.21
0	37273	3030.21	600.21
0	37274	3030.21	500.21
0	37275	3030.21	400.21
0	37276	3030.21	300.21
0	37277	3030.21	200.21
0	37412	3040.21	600.21
0	37413	3040.21	500.21
0	37414	3040.21	400.21
0	37415	3040.21	300.21
0	37416	3040.21	200.21
0	37551	3050.21	600.21
0	37552	3050.21	500.21
0	37553	3050.21	400.21
0	37554	3050.21	300.21
0	37555	3050.21	200.21
0	37690	3060.21	600.21
0	37691	3060.21	500.21
0	37692	3060.21	400.21
0	37693	3060.21	300.21
0	37694	3060.21	200.21
0	37829	3070.21	600.21
0	37830	3070.21	500.21
0	37831	3070.21	400.21
0	37832	3070.21	300.21
0	37833	3070.21	200.21
0	37968	3080.21	600.21
0	37969	3080.21	500.21
0	37970	3080.21	400.21
0	37971	3080.21	300.21
0	37972	3080.21	200.21
0	38107	3090.21	600.21
0	38108	3090.21	500.21
0	38109	3090.21	400.21
0	38110	3090.21	300.21
0	38111	3090.21	200.21
0	38246	3100.21	600.21
0	38247	3100.21	500.21
0	38248	3100.21	400.21
0	38249	3100.21	300.21
0	38250	3100.21	200.21
0	38385	3110.21	600.21
0	38386	3110.21	500.21
0	38387	3110.21	400.21
0	38388	3110.21	300.21
0	38389	3110.21	200.21
0	38524	3120.21	600.21
0	38525	3120.21	500.21
0	38526	3120.21	400.21
0	38527	3120.21	300.21
0	38528	3120.21	200.21
0	38663	3130.21	600.21
0	38664	3130.21	500.21
0	38665	3130.21	400.21
0	38666	3130.21	300.21
0	38667	3130.21	200.21
0	38802	3140.21	600.21
0	38803	3140.21	500.21
0	38804	3140.21	400.21
0	38805	3140.21	300.21
0	38806	3140.21	200.21
0	38941	3150.21	600.21
0	38942	3150.21	500.21
0	38943	3150.21	400.21
0	38944	3150.21	300.21
0	38945	3150.21	200.21
0	39080	3160.21	600.21
0	39081	3160.21	500.21
0	39082	3160.21	400.21
0	39083	3160.21	300.21
0	39084	3160.21	200.21
0	39219	3170.21	600.21
0	39220	3170.21	500.21
0	39221	3170.21	400.21
0	39222	3170.21	300.21
0	39223	3170.21	200.21
0	39358	3180.21	600.21
0	39359	3180.21	500.21
0	39360	3180.21	400.21
0	39361	3180.21	300.21
0	39362	3180.21	200.21
0	39497	3190.21	600.21
0	39498	3190.21	500.21
0	39499	3190.21	400.21
0	39500	3190.21	300.21
0	39501	3190.21	200.21
0	39636	3200.21	600.21
0	39637	3200.21	500.21
0	39638	3200.21	400.21
0	39639	3200.21	300.21
0	39640	3200.21	200.21
0	39775	3210.21	600.21
0	39776	3210.21	500.21
0	39777	3210.21	400.21
0	39778	3210.21	300.21
0	39779	3210.21	200.21
0	39915	3220.21	600.21
0	39916	3220.21	500.21
0	39917	3220.21	400.21
0	39918	3220.21	300.21
0	39919	3220.21	200.21
0	40053	3230.21	600.21
0	40054	3230.21	500.21
0	40055	3230.21	400.21
0	40056	3230.21	300.21
0	40057	3230.21	200.21
0	40191	3240.21	600.21
0	40192	3240.21	500.21
0	40193	3240.21	400.21
0	40194	3240.21	300.21
0	40195	3240.21	200.21
0	40329	3250.21	600.21
0	40330	3250.21	500.21
0	40331	3250.21	400.21
0	40332	3250.21	300.21
0	40333	3250.21	200.21
0	40467	3260.21	600.21
0	40468	3260.21	500.21
0	40469	3260.21	400.21
0	40470	3260.21	300.21
0	40471	3260.21	200.21
0	40605	3270.21	600.21
0	40606	3270.21	500.21
0	40607	3270.21	400.21
0	40608	3270.21	300.21
0	40609	3270.21	200.21
0	40743	3280.21	600.21
0	40744	3280.21	500.21
0	40745	3280.21	400.21
0	40746	3280.21	300.21
0	40747	3280.21	200.21
0	40881	3290.21	600.21
0	40882	3290.21	500.21
0	40883	3290.21	400.21
0	40884	3290.21	300.21
0	40885	3290.21	200.21
0	41019	3300.21	600.21
0	41020	3300.21	500.21
0	41021	3300.21	400.21
0	41022	3300.21	300.21
0	41023	3300.21	200.21
0	41157	3310.21	600.21
0	41158	3310.21	500.21
0	41159	3310.21	400.21
0	41160	3310.21	300.21
0	41161	3310.21	200.21
0	41295	3320.21	600.21
0	41296	3320.21	500.21
0	41297	3320.21	400.21
0	41298	3320.21	300.21
0	41299	3320.21	200.21
0	41433	3330.21	600.21
0	41434	3330.21	500.21
0	41435	3330.21	400.21
0	41436	3330.21	300.21
0	41437	3330.21	200.21
0	41571	3340.21	600.21
0	41572	3340.21	500.21
0	41573	3340.21	400.21
0	41574	3340.21	300.21
0	41575	3340.21	200.21
0	41709	3350.21	600.21
0	41710	3350.21	500.21
0	41711	3350.21	400.21
0	41712	3350.21	300.21
0	41713	3350.21	200.21
0	41847	3360.21	600.21
0	41848	3360.21	500.21
0	41849	3360.21	400.21
0	41850	3360.21	300.21
0	41851	3360.21	200.21
0	41985	3370.21	600.21
0	41986	3370.21	500.21
0	41987	3370.21	400.21
0	41988	3370.21	300.21
0	41989	3370.21	200.21
0	42123	3380.21	600.21
0	42124	3380.21	500.21
0	42125	3380.21	400.21
0	42126	3380.21	300.21
0	42127	3380.21	200.21
0	42261	3390.21	600.21
0	42262	3390.21	500.21
0	42263	3390.21	400.21
0	42264	3390.21	300.21
0	42265	3390.21	200.21
0	42399	3400.21	600.21
0	42400	3400.21	500.21
0	42401	3400.21	400.21
0	42402	3400.21	300.21
0	42403	3400.21	200.21
0	42537	3410.21	600.21
0	42538	3410.21	500.21
0	42539	3410.21	400.21
0	42540	3410.21	300.21
0	42541	3410.21	200.21
0	42676	3420.21	600.21
0	42677	3420.21	500.21
0	42678	3420.21	400.21
0	42679	3420.21	300.21
0	42680	3420.21	200.21
0	42814	3430.21	600.21
0	42815	3430.21	500.21
0	42816	3430.21	400.21
0	42817	3430.21	300.21
0	42818	3430.21	200.21
0	42952	3440.21	600.21
0	42953	3440.21	500.21
0	42954	3440.21	400.21
0	42955	3440.21	300.21
0	42956	3440.21	200.21
0	43090	3450.21	600.21
0	43091	3450.21	500.21
0	43092	3450.21	400.21
0	43093	3450.21	300.21
0	43094	3450.21	200.21
0	43291	3460.35	600.35
0	43292	3460.35	500.35
0	43293	3460.35	400.35
0	43294	3460.35	300.35
0	43295	3460.35	200.35
0	43531	3470.35	600.35
0	43532	3470.35	500.35
0	43533	3470.35	400.35
0	43534	3470.35	300.35
0	43535	3470.35	200.35
0	43771	3480.35	600.35
0	43772	3480.35	500.35
0	43773	3480.35	400.35
0	43774	3480.35	300.35
0	43775	3480.35	200.35
0	44011	3490.35	600.35
0	44012	3490.35	500.35
0	44013	3490.35	400.35
0	44014	3490.35	300.35
0	44015	3490.35	200.35
0	44251	3500.35	600.35
0	44252	3500.35	500.35
0	44253	3500.35	400.35
0	44254	3500.35	300.35
0	44255	3500.35	200.35
0	44491	3510.35	600.35
0	44492	3510.35	500.35
0	44493	3510.35	400.35
0	44494	3510.35	300.35
0	44495	3510.35	200.35
0	44731	3520.35	600.35
0	44732	3520.35	500.35
0	44733	3520.35	400.35
0	44734	3520.35	300.35
0	44735	3520.35	200.35
0	44971	3530.35	600.35
0	44972	3530.35	500.35
0	44973	3530.35	400.35
0	44974	3530.35	300.35
0	44975	3530.35	200.35
0	45214	3540.35	600.35
0	45215	3540.35	500.35
0	45216	3540.35	400.35
0	45217	3540.35	300.35
0	45218	3540.35	200.35
0	45455	3550.35	600.35
0	45456	3550.35	500.35
0	45457	3550.35	400.35
0	45458	3550.35	300.35
0	45459	3550.35	200.35
0	45701	3560.35	600.35
0	45702	3560.35	500.35
0	45703	3560.35	400.35
0	45704	3560.35	300.35
0	45705	3560.35	200.35
0	45947	3570.35	600.35
0	45948	3570.35	500.35
0	45949	3570.35	400.35
0	45950	3570.35	300.35
0	45951	3570.35	200.35
0	46193	3580.35	600.35
0	46194	3580.35	500.35
0	46195	3580.35	400.35
0	46196	3580.35	300.35
0	46197	3580.35	200.35
0	46439	3590.35	600.35
0	46440	3590.35	500.35
0	46441	3590.35	400.35
0	46442	3590.35	300.35
0	46443	3590.35	200.35
0	46685	3600.35	600.35
0	46686	3600.35	500.35
0	46687	3600.35	400.35
0	46688	3600.35	300.35
0	46689	3600.35	200.35
0	46931	3610.35	600.35
0	46932	3610.35	500.35
0	46933	3610.35	400.35
0	46934	3610.35	300.35
0	46935	3610.35	200.35
0	47103	3620.16	600.16
0	47104	3620.16	500.16
0	47105	3620.16	400.16
0	47106	3620.16	300.16
0	47107	3620.16	200.16
0	47232	3620.35	600.35
0	47233	3620.35	500.35
0	47234	3620.35	400.35
0	47235	3620.35	300.35
0	47368	3630.16	600.16
0	47369	3630.16	500.16
0	47370	3630.16	400.16
0	47371	3630.16	300.16
0	47372	3630.16	200.16
0	47497	3630.35	600.35
0	47498	3630.35	500.35
0	47499	3630.35	400.35
0	47500	3630.35	300.35
0	47633	3640.16	600.16
0	47634	3640.16	500.16
0	47635	3640.16	400.16
0	47636	3640.16	300.16
0	47637	3640.16	200.16
0	47762	3640.35	600.35
0	47763	3640.35	500.35
0	47764	3640.35	400.35
0	47765	3640.35	300.35
0	47897	3650.16	600.16
0	47898	3650.16	500.16
0	47899	3650.16	400.16
0	47900	3650.16	300.16
0	47901	3650.16	200.16
0	48026	3650.35	600.35
0	48027	3650.35	500.35
0	48028	3650.35	400.35
0	48029	3650.35	300.35
0	48161	3660.16	600.16
0	48162	3660.16	500.16
0	48163	3660.16	400.16
0	48164	3660.16	300.16
0	48165	3660.16	200.16
0	48290	3660.35	600.35
0	48291	3660.35	500.35
0	48292	3660.35	400.35
0	48293	3660.35	300.35
0	48425	3670.16	600.16
0	48426	3670.16	500.16
0	48427	3670.16	400.16
0	48428	3670.16	300.16
0	48429	3670.16	200.16
0	48554	3670.35	600.35
0	48555	3670.35	500.35
0	48556	3670.35	400.35
0	48557	3670.35	300.35
0	48689	3680.16	600.16
0	48690	3680.16	500.16
0	48691	3680.16	400.16
0	48692	3680.16	300.16
0	48693	3680.16	200.16
0	48818	3680.35	600.35
0	48819	3680.35	500.35
0	48820	3680.35	400.35
0	48821	3680.35	300.35
0	48953	3690.16	600.16
0	48954	3690.16	500.16
0	48955	3690.16	400.16
0	48956	3690.16	300.16
0	48957	3690.16	200.16
0	49082	3690.35	600.35
0	49083	3690.35	500.35
0	49084	3690.35	400.35
0	49085	3690.35	300.35
0	49217	3700.16	600.16
0	49218	3700.16	500.16
0	49219	3700.16	400.16
0	49220	3700.16	300.16
0	49221	3700.16	200.16
0	49346	3700.35	600.35
0	49347	3700.35	500.35
0	49348	3700.35	400.35
0	49349	3700.35	300.35
0	49481	3710.16	600.16
0	49482	3710.16	500.16
0	49483	3710.16	400.16
0	49484	3710.16	300.16
0	49485	3710.16	200.16
0	49610	3710.35	600.35
0	49611	3710.35	500.35
0	49612	3710.35	400.35
0	49613	3710.35	300.35
0	49750	3720.16	600.16
0	49751	3720.16	500.16
0	49752	3720.16	400.16
0	49753	3720.16	300.16
0	49754	3720.16	200.16
0	49868	3720.35	600.35
0	49869	3720.35	500.35
0	49870	3720.35	400.35
0	49997	3730.16	600.16
0	49998	3730.16	500.16
0	49999	3730.16	400.16
0	50000	3730.16	300.16
0	50001	3730.16	200.16
0	50115	3730.35	600.35
0	50116	3730.35	500.35
0	50117	3730.35	400.35
0	50244	3740.16	600.16
0	50245	3740.16	500.16
0	50246	3740.16	400.16
0	50247	3740.16	300.16
0	50248	3740.16	200.16
0	50362	3740.35	600.35
0	50363	3740.35	500.35
0	50364	3740.35	400.35
0	50491	3750.16	600.16
0	50492	3750.16	500.16
0	50493	3750.16	400.16
0	50494	3750.16	300.16
0	50495	3750.16	200.16
0	50609	3750.35	600.35
0	50610	3750.35	500.35
0	50611	3750.35	400.35
0	50738	3760.16	600.16
0	50739	3760.16	500.16
0	50740	3760.16	400.16
0	50741	3760.16	300.16
0	50742	3760.16	200.16
0	50856	3760.35	600.35
0	50857	3760.35	500.35
0	50858	3760.35	400.35
0	50985	3770.16	600.16
0	50986	3770.16	500.16
0	50987	3770.16	400.16
0	50988	3770.16	300.16
0	50989	3770.16	200.16
0	51103	3770.35	600.35
0	51104	3770.35	500.35
0	51105	3770.35	400.35
0	51232	3780.16	600.16
0	51233	3780.16	500.16
0	51234	3780.16	400.16
0	51235	3780.16	300.16
0	51236	3780.16	200.16
0	51350	3780.35	600.35
0	51351	3780.35	500.35
0	51352	3780.35	400.35
0	51479	3790.16	600.16
0	51480	3790.16	500.16
0	51481	3790.16	400.16
0	51482	3790.16	300.16
0	51483	3790.16	200.16
0	51597	3790.35	600.35
0	51598	3790.35	500.35
0	51599	3790.35	400.35
0	51726	3800.16	600.16
0	51727	3800.16	500.16
0	51728	3800.16	400.16
0	51729	3800.16	300.16
0	51730	3800.16	200.16
0	51844	3800.35	600.35
0	51845	3800.35	500.35
0	51846	3800.35	400.35
0	51973	3810.16	600.16
0	51974	3810.16	500.16
0	51975	3810.16	400.16
0	51976	3810.16	300.16
0	51977	3810.16	200.16
0	52091	3810.35	600.35
0	52092	3810.35	500.35
0	52093	3810.35	400.35
0	52220	3820.16	600.16
0	52221	3820.16	500.16
0	52222	3820.16	400.16
0	52223	3820.16	300.16
0	52224	3820.16	200.16
0	52332	3820.35	600.35
0	52333	3820.35	500.35
0	52450	3830.16	600.16
0	52451	3830.16	500.16
0	52452	3830.16	400.16
0	52453	3830.16	300.16
0	52454	3830.16	200.16
0	52562	3830.35	600.35
0	52563	3830.35	500.35
0	52682	3840.16	600.16
0	52683	3840.16	500.16
0	52684	3840.16	400.16
0	52685	3840.16	300.16
0	52686	3840.16	200.16
0	52796	3840.35	600.35
0	52797	3840.35	500.35
0	52915	3850.16	600.16
0	52916	3850.16	500.16
0	52917	3850.16	400.16
0	52918	3850.16	300.16
0	52919	3850.16	200.16
0	53029	3850.35	600.35
0	53030	3850.35	500.35
0	53148	3860.16	600.16
0	53149	3860.16	500.16
0	53150	3860.16	400.16
0	53151	3860.16	300.16
0	53152	3860.16	200.16
0	53262	3860.35	600.35
0	53263	3860.35	500.35
0	53381	3870.16	600.16
0	53382	3870.16	500.16
0	53383	3870.16	400.16
0	53384	3870.16	300.16
0	53385	3870.16	200.16
0	53495	3870.35	600.35
0	53496	3870.35	500.35
0	53613	3880.16	600.16
0	53614	3880.16	500.16
0	53615	3880.16	400.16
0	53616	3880.16	300.16
0	53617	3880.16	200.16
0	53727	3880.35	600.35
0	53728	3880.35	500.35
0	53845	3890.16	600.16
0	53846	3890.16	500.16
0	53847	3890.16	400.16
0	53848	3890.16	300.16
0	53849	3890.16	200.16
0	53959	3890.35	600.35
0	53960	3890.35	500.35
0	54077	3900.16	600.16
0	54078	3900.16	500.16
0	54079	3900.16	400.16
0	54080	3900.16	300.16
0	54081	3900.16	200.16
0	54191	3900.35	600.35
0	54192	3900.35	500.35
0	54309	3910.16	600.16
0	54310	3910.16	500.16
0	54311	3910.16	400.16
0	54312	3910.16	300.16
0	54313	3910.16	200.16
0	54423	3910.35	600.35
0	54424	3910.35	500.35
0	54541	3920.16	600.16
0	54542	3920.16	500.16
0	54543	3920.16	400.16
0	54544	3920.16	300.16
0	54545	3920.16	200.16
0	54649	3920.35	600.35
0	54756	3930.16	600.16
0	54757	3930.16	500.16
0	54758	3930.16	400.16
0	54759	3930.16	300.16
0	54760	3930.16	200.16
0	54864	3930.35	600.35
0	54971	3940.16	600.16
0	54972	3940.16	500.16
0	54973	3940.16	400.16
0	54974	3940.16	300.16
0	54975	3940.16	200.16
0	55079	3940.35	600.35
0	55186	3950.16	600.16
0	55187	3950.16	500.16
0	55188	3950.16	400.16
0	55189	3950.16	300.16
0	55190	3950.16	200.16
0	55294	3950.35	600.35
0	55401	3960.16	600.16
0	55402	3960.16	500.16
0	55403	3960.16	400.16
0	55404	3960.16	300.16
0	55405	3960.16	200.16
0	55509	3960.35	600.35
0	55616	3970.16	600.16
0	55617	3970.16	500.16
0	55618	3970.16	400.16
0	55619	3970.16	300.16
0	55620	3970.16	200.16
0	55724	3970.35	600.35
0	55831	3980.16	600.16
0	55832	3980.16	500.16
0	55833	3980.16	400.16
0	55834	3980.16	300.16
0	55835	3980.16	200.16
0	55939	3980.35	600.35
0	56046	3990.16	600.16
0	56047	3990.16	500.16
0	56048	3990.16	400.16
0	56049	3990.16	300.16
0	56050	3990.16	200.16
0	56154	3990.35	600.35
0	56261	4000.16	600.16
0	56262	4000.16	500.16
0	56263	4000.16	400.16
0	56264	4000.16	300.16
0	56265	4000.16	200.16
0	56369	4000.35	600.35
0	56476	4010.16	600.16
0	56477	4010.16	500.16
0	56478	4010.16	400.16
0	56479	4010.16	300.16
0	56480	4010.16	200.16
0	56584	4010.35	600.35
0	56691	4020.16	600.16
0	56692	4020.16	500.16
0	56693	4020.16	400.16
0	56694	4020.16	300.16
0	56695	4020.16	200.16
0	56883	4030.16	600.16
0	56884	4030.16	500.16
0	56885	4030.16	400.16
0	56886	4030.16	300.16
0	56887	4030.16	200.16
0	57075	4040.16	600.16
0	57076	4040.16	500.16
0	57077	4040.16	400.16
0	57078	4040.16	300.16
0	57079	4040.16	200.16
0	57267	4050.16	600.16
0	57268	4050.16	500.16
0	57269	4050.16	400.16
0	57270	4050.16	300.16
0	57271	4050.16	200.16
0	57459	4060.16	600.16
0	57460	4060.16	500.16
0	57461	4060.16	400.16
0	57462	4060.16	300.16
0	57463	4060.16	200.16
0	57652	4070.16	600.16
0	57653	4070.16	500.16
0	57654	4070.16	400.16
0	57655	4070.16	300.16
0	57656	4070.16	200.16
0	57829	4080.16	600.16
0	57830	4080.16	500.16
0	57831	4080.16	400.16
0	57832	4080.16	300.16
0	57833	4080.16	200.16
0	58006	4090.16	600.16
0	58007	4090.16	500.16
0	58008	4090.16	400.16
0	58009	4090.16	300.16
0	58010	4090.16	200.16
0	58184	4100.16	600.16
0	58185	4100.16	500.16
0	58186	4100.16	400.16
0	58187	4100.16	300.16
0	58188	4100.16	200.16
0	58334	4110.16	600.16
0	58335	4110.16	500.16
0	58336	4110.16	400.16
0	58337	4110.16	300.16
0	58338	4110.16	200.16
0	58484	4120.16	600.16
0	58485	4120.16	500.16
0	58486	4120.16	400.16
0	58487	4120.16	300.16
0	58488	4120.16	200.16
0	58633	4130.16	600.16
0	58634	4130.16	500.16
0	58635	4130.16	400.16
0	58636	4130.16	300.16
0	58637	4130.16	200.16
0	58785	4140.16	600.16
0	58786	4140.16	500.16
0	58787	4140.16	400.16
0	58788	4140.16	300.16
0	58789	4140.16	200.16
0	58938	4150.16	600.16
0	58939	4150.16	500.16
0	58940	4150.16	400.16
0	58941	4150.16	300.16
0	58942	4150.16	200.16
0	59089	4160.16	600.16
0	59090	4160.16	500.16
0	59091	4160.16	400.16
0	59092	4160.16	300.16
0	59093	4160.16	200.16
0	59241	4170.16	600.16
0	59242	4170.16	500.16
0	59243	4170.16	400.16
0	59244	4170.16	300.16
0	59245	4170.16	200.16
0	59364	4180.16	600.16
0	59365	4180.16	500.16
0	59366	4180.16	400.16
0	59367	4180.16	300.16
0	59368	4180.16	200.16
0	59487	4190.16	600.16
0	59488	4190.16	500.16
0	59489	4190.16	400.16
0	59490	4190.16	300.16
0	59491	4190.16	200.16
0	59787	4200.16	600.16
0	59788	4200.16	500.16
0	59789	4200.16	400.16
0	59790	4200.16	300.16
0	59791	4200.16	200.16
0	59911	4210.16	600.16
0	59912	4210.16	500.16
0	59913	4210.16	400.16
0	59914	4210.16	300.16
0	59915	4210.16	200.16
0	60038	4220.16	600.16
0	60039	4220.16	500.16
0	60040	4220.16	400.16
0	60041	4220.16	300.16
0	60042	4220.16	200.16
0	60163	4230.16	600.16
0	60164	4230.16	500.16
0	60165	4230.16	400.16
0	60166	4230.16	300.16
0	60167	4230.16	200.16
0	60288	4240.16	600.16
0	60289	4240.16	500.16
0	60290	4240.16	400.16
0	60291	4240.16	300.16
0	60292	4240.16	200.16
0	60413	4250.16	600.16
0	60414	4250.16	500.16
0	60415	4250.16	400.16
0	60416	4250.16	300.16
0	60417	4250.16	200.16
0	60538	4260.16	600.16
0	60539	4260.16	500.16
0	60540	4260.16	400.16
0	60541	4260.16	300.16
0	60542	4260.16	200.16
0	60688	4270.16	700.16
0	60689	4270.16	600.16
0	60690	4270.16	500.16
0	60691	4270.16	400.16
0	60692	4270.16	300.16
0	60693	4270.16	600.16
0	60694	4270.16	500.16
0	60695	4270.16	400.16
0	60696	4270.16	300.16
0	60697	4270.16	200.16
0	60819	4280.16	700.16
0	60820	4280.16	600.16
0	60821	4280.16	500.16
0	60822	4280.16	400.16
0	60823	4280.16	300.16
0	60824	4280.16	600.16
0	60825	4280.16	500.16
0	60826	4280.16	400.16
0	60827	4280.16	300.16
0	60828	4280.16	200.16
0	60950	4290.16	700.16
0	60951	4290.16	600.16
0	60952	4290.16	500.16
0	60953	4290.16	400.16
0	60954	4290.16	300.16
0	60955	4290.16	600.16
0	60956	4290.16	500.16
0	60957	4290.16	400.16
0	60958	4290.16	300.16
0	60959	4290.16	200.16
0	61081	4300.16	700.16
0	61082	4300.16	600.16
0	61083	4300.16	500.16
0	61084	4300.16	400.16
0	61085	4300.16	300.16
0	61086	4300.16	600.16
0	61087	4300.16	500.16
0	61088	4300.16	400.16
0	61089	4300.16	300.16
0	61090	4300.16	200.16
0	61294	4310.2	700.2
0	61295	4310.2	600.2
0	61296	4310.2	500.2
0	61297	4310.2	400.2
0	61298	4310.2	300.2
0	61299	4310.2	600.2
0	61300	4310.2	500.2
0	61301	4310.2	400.2
0	61302	4310.2	300.2
0	61303	4310.2	200.2
0	61829	4320.2	700.2
0	61830	4320.2	600.2
0	61831	4320.2	500.2
0	61832	4320.2	400.2
0	61833	4320.2	300.2
0	61834	4320.2	600.2
0	61835	4320.2	500.2
0	61836	4320.2	400.2
0	61837	4320.2	300.2
0	61838	4320.2	200.2
0	62062	4330.2	700.2
0	62063	4330.2	600.2
0	62064	4330.2	500.2
0	62065	4330.2	400.2
0	62066	4330.2	300.2
0	62067	4330.2	600.2
0	62068	4330.2	500.2
0	62069	4330.2	400.2
0	62070	4330.2	300.2
0	62071	4330.2	200.2
0	62295	4340.2	700.2
0	62296	4340.2	600.2
0	62297	4340.2	500.2
0	62298	4340.2	400.2
0	62299	4340.2	300.2
0	62300	4340.2	600.2
0	62301	4340.2	500.2
0	62302	4340.2	400.2
0	62303	4340.2	300.2
0	62304	4340.2	200.2
0	62528	4350.2	700.2
0	62529	4350.2	600.2
0	62530	4350.2	500.2
0	62531	4350.2	400.2
0	62532	4350.2	300.2
0	62533	4350.2	600.2
0	62534	4350.2	500.2
0	62535	4350.2	400.2
0	62536	4350.2	300.2
0	62537	4350.2	200.2
0	62761	4360.2	700.2
0	62762	4360.2	600.2
0	62763	4360.2	500.2
0	62764	4360.2	400.2
0	62765	4360.2	300.2
0	62766	4360.2	600.2
0	62767	4360.2	500.2
0	62768	4360.2	400.2
0	62769	4360.2	300.2
0	62770	4360.2	200.2
0	63026	4370.2	800.2
0	63027	4370.2	700.2
0	63028	4370.2	600.2
0	63029	4370.2	500.2
0	63030	4370.2	400.2
0	63031	4370.2	300.2
0	63032	4370.2	600.2
0	63033	4370.2	500.2
0	63034	4370.2	400.2
0	63035	4370.2	300.2
0	63036	4370.2	200.2
0	63296	4380.2	800.2
0	63297	4380.2	700.2
0	63298	4380.2	600.2
0	63299	4380.2	500.2
0	63300	4380.2	400.2
0	63301	4380.2	300.2
0	63302	4380.2	600.2
0	63303	4380.2	500.2
0	63304	4380.2	400.2
0	63305	4380.2	300.2
0	63306	4380.2	200.2
0	63566	4390.2	800.2
0	63567	4390.2	700.2
0	63568	4390.2	600.2
0	63569	4390.2	500.2
0	63570	4390.2	400.2
0	63571	4390.2	300.2
0	63572	4390.2	600.2
0	63573	4390.2	500.2
0	63574	4390.2	400.2
0	63575	4390.2	300.2
0	63576	4390.2	200.2
0	63836	4400.2	800.2
0	63837	4400.2	700.2
0	63838	4400.2	600.2
0	63839	4400.2	500.2
0	63840	4400.2	400.2
0	63841	4400.2	300.2
0	63842	4400.2	600.2
0	63843	4400.2	500.2
0	63844	4400.2	400.2
0	63845	4400.2	300.2
0	63846	4400.2	200.2
0	64071	4410.2	800.2
0	64072	4410.2	700.2
0	64073	4410.2	600.2
0	64074	4410.2	500.2
0	64075	4410.2	400.2
0	64076	4410.2	300.2
0	64077	4410.2	600.2
0	64078	4410.2	500.2
0	64079	4410.2	400.2
0	64080	4410.2	300.2
0	64081	4410.2	200.2
0	64294	4420.2	800.2
0	64295	4420.2	700.2
0	64296	4420.2	600.2
0	64297	4420.2	500.2
0	64298	4420.2	400.2
0	64299	4420.2	300.2
0	64300	4420.2	600.2
0	64301	4420.2	500.2
0	64302	4420.2	400.2
0	64303	4420.2	300.2
0	64304	4420.2	200.2
0	64516	4430.2	800.2
0	64517	4430.2	700.2
0	64518	4430.2	600.2
0	64519	4430.2	500.2
0	64520	4430.2	400.2
0	64521	4430.2	300.2
0	64522	4430.2	600.2
0	64523	4430.2	500.2
0	64524	4430.2	400.2
0	64525	4430.2	300.2
0	64526	4430.2	200.2
0	64738	4440.2	800.2
0	64739	4440.2	700.2
0	64740	4440.2	600.2
0	64741	4440.2	500.2
0	64742	4440.2	400.2
0	64743	4440.2	300.2
0	64744	4440.2	600.2
0	64745	4440.2	500.2
0	64746	4440.2	400.2
0	64747	4440.2	300.2
0	64748	4440.2	200.2
0	64956	4450.2	800.2
0	64957	4450.2	700.2
0	64958	4450.2	600.2
0	64959	4450.2	500.2
0	64960	4450.2	400.2
0	64961	4450.2	300.2
0	64962	4450.2	600.2
0	64963	4450.2	500.2
0	64964	4450.2	400.2
0	64965	4450.2	300.2
0	64966	4450.2	200.2
0	65167	4460.2	800.2
0	65168	4460.2	700.2
0	65169	4460.2	600.2
0	65170	4460.2	500.2
0	65171	4460.2	400.2
0	65172	4460.2	300.2
0	65173	4460.2	600.2
0	65174	4460.2	500.2
0	65175	4460.2	400.2
0	65176	4460.2	300.2
0	65177	4460.2	200.2
0	65426	4470.2	900.2
0	65427	4470.2	800.2
0	65428	4470.2	700.2
0	65429	4470.2	600.2
0	65430	4470.2	500.2
0	65431	4470.2	400.2
0	65432	4470.2	300.2
0	65433	4470.2	600.2
0	65434	4470.2	500.2
0	65435	4470.2	400.2
0	65436	4470.2	300.2
0	65437	4470.2	200.2
0	65699	4480.2	900.2
0	65700	4480.2	800.2
0	65701	4480.2	700.2
0	65702	4480.2	600.2
0	65703	4480.2	500.2
0	65704	4480.2	400.2
0	65705	4480.2	300.2
0	65706	4480.2	600.2
0	65707	4480.2	500.2
0	65708	4480.2	400.2
0	65709	4480.2	300.2
0	65710	4480.2	200.2
0	65952	4490.2	900.2
0	65953	4490.2	800.2
0	65954	4490.2	700.2
0	65955	4490.2	600.2
0	65956	4490.2	500.2
0	65957	4490.2	400.2
0	65958	4490.2	300.2
0	65959	4490.2	600.2
0	65960	4490.2	500.2
0	65961	4490.2	400.2
0	65962	4490.2	300.2
0	65963	4490.2	200.2
0	66205	4500.2	900.2
0	66206	4500.2	800.2
0	66207	4500.2	700.2
0	66208	4500.2	600.2
0	66209	4500.2	500.2
0	66210	4500.2	400.2
0	66211	4500.2	300.2
0	66212	4500.2	600.2
0	66213	4500.2	500.2
0	66214	4500.2	400.2
0	66215	4500.2	300.2
0	66216	4500.2	200.2
0	66452	4510.2	900.2
0	66453	4510.2	800.2
0	66454	4510.2	700.2
0	66455	4510.2	600.2
0	66456	4510.2	500.2
0	66457	4510.2	400.2
0	66458	4510.2	300.2
0	66459	4510.2	600.2
0	66460	4510.2	500.2
0	66461	4510.2	400.2
0	66462	4510.2	300.2
0	66463	4510.2	200.2
0	66899	4520.2	900.2
0	66900	4520.2	800.2
0	66901	4520.2	700.2
0	66902	4520.2	600.2
0	66903	4520.2	500.2
0	66904	4520.2	400.2
0	66905	4520.2	300.2
0	66906	4520.2	600.2
0	66907	4520.2	500.2
0	66908	4520.2	400.2
0	66909	4520.2	300.2
0	66910	4520.2	200.2
0	67146	4530.2	900.2
0	67147	4530.2	800.2
0	67148	4530.2	700.2
0	67149	4530.2	600.2
0	67150	4530.2	500.2
0	67151	4530.2	400.2
0	67152	4530.2	300.2
0	67153	4530.2	600.2
0	67154	4530.2	500.2
0	67155	4530.2	400.2
0	67156	4530.2	300.2
0	67157	4530.2	200.2
0	69534	4540.2	600.2
0	69535	4540.2	500.2
0	69536	4540.2	400.2
0	69537	4540.2	300.2
0	69538	4540.2	200.2
0	70032	4550.2	600.2
0	70033	4550.2	500.2
0	70034	4550.2	400.2
0	70035	4550.2	300.2
0	70036	4550.2	200.2
0	70260	4560.2	600.2
0	70261	4560.2	500.2
0	70262	4560.2	400.2
0	70263	4560.2	300.2
0	70264	4560.2	200.2
0	70531	4570.2	700.2
0	70532	4570.2	600.2
0	70533	4570.2	500.2
0	70534	4570.2	400.2
0	70535	4570.2	300.2
0	70536	4570.2	300.2
0	70537	4570.2	200.2
0	70821	4580.2	700.2
0	70822	4580.2	600.2
0	70823	4580.2	500.2
0	70824	4580.2	400.2
0	70825	4580.2	300.2
0	70826	4580.2	300.2
0	70827	4580.2	200.2
0	71100	4590.2	700.2
0	71101	4590.2	600.2
0	71102	4590.2	500.2
0	71103	4590.2	400.2
0	71104	4590.2	300.2
0	71105	4590.2	300.2
0	71106	4590.2	200.2
0	71379	4600.2	700.2
0	71380	4600.2	600.2
0	71381	4600.2	500.2
0	71382	4600.2	400.2
0	71383	4600.2	300.2
0	71384	4600.2	300.2
0	71385	4600.2	200.2
0	71658	4610.2	700.2
0	71659	4610.2	600.2
0	71660	4610.2	500.2
0	71661	4610.2	400.2
0	71662	4610.2	300.2
0	71663	4610.2	300.2
0	71664	4610.2	200.2
0	71937	4620.2	700.2
0	71938	4620.2	600.2
0	71939	4620.2	500.2
0	71940	4620.2	400.2
0	71941	4620.2	300.2
0	71942	4620.2	300.2
0	71943	4620.2	200.2
0	72216	4630.2	700.2
0	72217	4630.2	600.2
0	72218	4630.2	500.2
0	72219	4630.2	400.2
0	72220	4630.2	300.2
0	72221	4630.2	300.2
0	72222	4630.2	200.2
0	72488	4640.2	700.2
0	72489	4640.2	600.2
0	72490	4640.2	500.2
0	72491	4640.2	400.2
0	72492	4640.2	300.2
0	72493	4640.2	300.2
0	72494	4640.2	200.2
0	72758	4650.2	700.2
0	72759	4650.2	300.2
0	72760	4650.2	600.2
0	72761	4650.2	200.2
0	72762	4650.2	500.2
0	72763	4650.2	400.2
0	72764	4650.2	300.2
0	73028	4660.2	700.2
0	73029	4660.2	300.2
0	73030	4660.2	600.2
0	73031	4660.2	200.2
0	73032	4660.2	500.2
0	73033	4660.2	400.2
0	73034	4660.2	300.2
0	73342	4670.2	800.2
0	73343	4670.2	400.2
0	73344	4670.2	700.2
0	73345	4670.2	300.2
0	73346	4670.2	600.2
0	73347	4670.2	200.2
0	73348	4670.2	500.2
0	73349	4670.2	400.2
0	73350	4670.2	300.2
0	73672	4680.2	800.2
0	73673	4680.2	400.2
0	73674	4680.2	700.2
0	73675	4680.2	300.2
0	73676	4680.2	600.2
0	73677	4680.2	200.2
0	73678	4680.2	500.2
0	73679	4680.2	400.2
0	73680	4680.2	300.2
0	73895	4690.2	400.2
0	73896	4690.2	300.2
0	73897	4690.2	200.2
0	74069	4700.2	400.2
0	74070	4700.2	300.2
0	74071	4700.2	200.2
0	74243	4710.2	400.2
0	74244	4710.2	300.2
0	74245	4710.2	200.2
0	74417	4720.2	400.2
0	74418	4720.2	300.2
0	74419	4720.2	200.2
0	74591	4730.2	400.2
0	74592	4730.2	300.2
0	74593	4730.2	200.2
0	74765	4740.2	400.2
0	74766	4740.2	300.2
0	74767	4740.2	200.2
0	74939	4750.2	400.2
0	74940	4750.2	300.2
0	74941	4750.2	200.2
0	75113	4760.2	400.2
0	75114	4760.2	300.2
0	75115	4760.2	200.2
0	75325	4770.2	500.2
0	75326	4770.2	400.2
0	75327	4770.2	300.2
0	75328	4770.2	200.2
0	75547	4780.2	500.2
0	75548	4780.2	400.2
0	75549	4780.2	300.2
0	75550	4780.2	200.2
0	75757	4790.2	500.2
0	75758	4790.2	400.2
0	75759	4790.2	300.2
0	75760	4790.2	200.2
0	75967	4800.2	500.2
0	75968	4800.2	400.2
0	75969	4800.2	300.2
0	75970	4800.2	200.2
0	76191	4810.2	500.2
0	76192	4810.2	400.2
0	76193	4810.2	300.2
0	76194	4810.2	200.2
0	76460	4820.2	500.2
0	76461	4820.2	400.2
0	76462	4820.2	300.2
0	76463	4820.2	200.2
0	76708	4830.2	500.2
0	76709	4830.2	400.2
0	76710	4830.2	300.2
0	76711	4830.2	200.2
0	76954	4840.2	500.2
0	76955	4840.2	400.2
0	76956	4840.2	300.2
0	76957	4840.2	200.2
0	77178	4850.2	500.2
0	77179	4850.2	400.2
0	77180	4850.2	300.2
0	77181	4850.2	200.2
0	77398	4860.2	500.2
0	77399	4860.2	400.2
0	77400	4860.2	300.2
0	77401	4860.2	200.2
0	77651	4870.2	600.2
0	77652	4870.2	500.2
0	77653	4870.2	400.2
0	77654	4870.2	300.2
0	77655	4870.2	200.2
0	77914	4880.2	600.2
0	77915	4880.2	500.2
0	77916	4880.2	400.2
0	77917	4880.2	300.2
0	77918	4880.2	200.2
0	78113	4890.2	600.2
0	78114	4890.2	500.2
0	78115	4890.2	400.2
0	78116	4890.2	300.2
0	78117	4890.2	200.2
0	78300	4900.2	600.2
0	78301	4900.2	500.2
0	78302	4900.2	400.2
0	78303	4900.2	300.2
0	78304	4900.2	200.2
0	78487	4910.2	600.2
0	78488	4910.2	500.2
0	78489	4910.2	400.2
0	78490	4910.2	300.2
0	78491	4910.2	200.2
0	78674	4920.2	600.2
0	78675	4920.2	500.2
0	78676	4920.2	400.2
0	78677	4920.2	300.2
0	78678	4920.2	200.2
0	78861	4930.2	600.2
0	78862	4930.2	500.2
0	78863	4930.2	400.2
0	78864	4930.2	300.2
0	78865	4930.2	200.2
0	79048	4940.2	600.2
0	79049	4940.2	500.2
0	79050	4940.2	400.2
0	79051	4940.2	300.2
0	79052	4940.2	200.2
0	79233	4950.2	600.2
0	79234	4950.2	500.2
0	79235	4950.2	400.2
0	79236	4950.2	300.2
0	79237	4950.2	200.2
0	79418	4960.2	600.2
0	79419	4960.2	500.2
0	79420	4960.2	400.2
0	79421	4960.2	300.2
0	79422	4960.2	200.2
0	79625	4970.2	700.2
0	79626	4970.2	600.2
0	79627	4970.2	500.2
0	79628	4970.2	400.2
0	79629	4970.2	300.2
0	79630	4970.2	200.2
0	79840	4980.2	700.2
0	79841	4980.2	600.2
0	79842	4980.2	500.2
0	79843	4980.2	400.2
0	79844	4980.2	300.2
0	79845	4980.2	200.2
0	80055	4990.2	700.2
0	80056	4990.2	600.2
0	80057	4990.2	500.2
0	80058	4990.2	400.2
0	80059	4990.2	300.2
0	80060	4990.2	200.2
0	80270	5000.2	700.2
0	80271	5000.2	600.2
0	80272	5000.2	500.2
0	80273	5000.2	400.2
0	80274	5000.2	300.2
0	80275	5000.2	200.2
0	80485	5010.2	700.2
0	80486	5010.2	600.2
0	80487	5010.2	500.2
0	80488	5010.2	400.2
0	80489	5010.2	300.2
0	80490	5010.2	200.2
0	80700	5020.2	700.2
0	80701	5020.2	600.2
0	80702	5020.2	500.2
0	80703	5020.2	400.2
0	80704	5020.2	300.2
0	80705	5020.2	200.2
0	80915	5030.2	700.2
0	80916	5030.2	600.2
0	80917	5030.2	500.2
0	80918	5030.2	400.2
0	80919	5030.2	300.2
0	80920	5030.2	200.2
0	81130	5040.2	700.2
0	81131	5040.2	600.2
0	81132	5040.2	500.2
0	81133	5040.2	400.2
0	81134	5040.2	300.2
0	81135	5040.2	200.2
0	81309	5050.2	500.2
0	81310	5050.2	400.2
0	81311	5050.2	300.2
0	81312	5050.2	200.2
0	81472	5060.2	500.2
0	81473	5060.2	400.2
0	81474	5060.2	300.2
0	81475	5060.2	200.2
0	81639	5070.2	500.2
0	81640	5070.2	400.2
0	81641	5070.2	300.2
0	81642	5070.2	200.2
0	81806	5080.2	500.2
0	81807	5080.2	400.2
0	81808	5080.2	300.2
0	81809	5080.2	200.2
0	81973	5090.2	500.2
0	81974	5090.2	400.2
0	81975	5090.2	300.2
0	81976	5090.2	200.2
0	82140	5100.2	500.2
0	82141	5100.2	400.2
0	82142	5100.2	300.2
0	82143	5100.2	200.2
0	82307	5110.2	500.2
0	82308	5110.2	400.2
0	82309	5110.2	300.2
0	82310	5110.2	200.2
0	82474	5120.2	500.2
0	82475	5120.2	400.2
0	82476	5120.2	300.2
0	82477	5120.2	200.2
0	82644	5130.2	500.2
0	82645	5130.2	400.2
0	82646	5130.2	300.2
0	82647	5130.2	200.2
0	82812	5140.2	500.2
0	82813	5140.2	400.2
0	82814	5140.2	300.2
0	82815	5140.2	200.2
0	82976	5150.2	500.2
0	82977	5150.2	400.2
0	82978	5150.2	300.2
0	82979	5150.2	200.2
0	83140	5160.2	500.2
0	83141	5160.2	400.2
0	83142	5160.2	300.2
0	83143	5160.2	200.2
0	83306	5170.2	500.2
0	83307	5170.2	400.2
0	83308	5170.2	300.2
0	83309	5170.2	200.2
0	83472	5180.2	500.2
0	83473	5180.2	400.2
0	83474	5180.2	300.2
0	83475	5180.2	200.2
0	83638	5190.2	500.2
0	83639	5190.2	400.2
0	83640	5190.2	300.2
0	83641	5190.2	200.2
0	83804	5200.2	500.2
0	83805	5200.2	400.2
0	83806	5200.2	300.2
0	83807	5200.2	200.2
0	83970	5210.2	500.2
0	83971	5210.2	400.2
0	83972	5210.2	300.2
0	83973	5210.2	200.2
0	84136	5220.2	500.2
0	84137	5220.2	400.2
0	84138	5220.2	300.2
0	84139	5220.2	200.2
0	84302	5230.2	500.2
0	84303	5230.2	400.2
0	84304	5230.2	300.2
0	84305	5230.2	200.2
0	84468	5240.2	500.2
0	84469	5240.2	400.2
0	84470	5240.2	300.2
0	84471	5240.2	200.2
0	84630	5250.2	500.2
0	84631	5250.2	400.2
0	84632	5250.2	300.2
0	84633	5250.2	200.2
0	84792	5260.2	500.2
0	84793	5260.2	400.2
0	84794	5260.2	300.2
0	84795	5260.2	200.2
0	84954	5270.2	500.2
0	84955	5270.2	400.2
0	84956	5270.2	300.2
0	84957	5270.2	200.2
0	85116	5280.2	500.2
0	85117	5280.2	400.2
0	85118	5280.2	300.2
0	85119	5280.2	200.2
0	85278	5290.2	500.2
0	85279	5290.2	400.2
0	85280	5290.2	300.2
0	85281	5290.2	200.2
0	85440	5300.2	500.2
0	85441	5300.2	400.2
0	85442	5300.2	300.2
0	85443	5300.2	200.2
0	85602	5310.2	500.2
0	85603	5310.2	400.2
0	85604	5310.2	300.2
0	85605	5310.2	200.2
0	85764	5320.2	500.2
0	85765	5320.2	400.2
0	85766	5320.2	300.2
0	85767	5320.2	200.2
0	85926	5330.2	500.2
0	85927	5330.2	400.2
0	85928	5330.2	300.2
0	85929	5330.2	200.2
0	86088	5340.2	500.2
0	86089	5340.2	400.2
0	86090	5340.2	300.2
0	86091	5340.2	200.2
0	86250	5350.2	500.2
0	86251	5350.2	400.2
0	86252	5350.2	300.2
0	86253	5350.2	200.2
0	86412	5360.2	500.2
0	86413	5360.2	400.2
0	86414	5360.2	300.2
0	86415	5360.2	200.2
0	86574	5370.2	500.2
0	86575	5370.2	400.2
0	86576	5370.2	300.2
0	86577	5370.2	200.2
0	86736	5380.2	500.2
0	86737	5380.2	400.2
0	86738	5380.2	300.2
0	86739	5380.2	200.2
0	86898	5390.2	500.2
0	86899	5390.2	400.2
0	86900	5390.2	300.2
0	86901	5390.2	200.2
0	87060	5400.2	500.2
0	87061	5400.2	400.2
0	87062	5400.2	300.2
0	87063	5400.2	200.2
0	87222	5410.2	500.2
0	87223	5410.2	400.2
0	87224	5410.2	300.2
0	87225	5410.2	200.2
0	87384	5420.2	500.2
0	87385	5420.2	400.2
0	87386	5420.2	300.2
0	87387	5420.2	200.2
0	87546	5430.2	500.2
0	87547	5430.2	400.2
0	87548	5430.2	300.2
0	87549	5430.2	200.2
0	87708	5440.2	500.2
0	87709	5440.2	400.2
0	87710	5440.2	300.2
0	87711	5440.2	200.2
0	87870	5450.2	500.2
0	87871	5450.2	400.2
0	87872	5450.2	300.2
0	87873	5450.2	200.2
0	88032	5460.2	500.2
0	88033	5460.2	400.2
0	88034	5460.2	300.2
0	88035	5460.2	200.2
0	88194	5470.2	500.2
0	88195	5470.2	400.2
0	88196	5470.2	300.2
0	88197	5470.2	200.2
0	88356	5480.2	500.2
0	88357	5480.2	400.2
0	88358	5480.2	300.2
0	88359	5480.2	200.2
0	88518	5490.2	500.2
0	88519	5490.2	400.2
0	88520	5490.2	300.2
0	88521	5490.2	200.2
0	88680	5500.2	500.2
0	88681	5500.2	400.2
0	88682	5500.2	300.2
0	88683	5500.2	200.2
0	88842	5510.2	500.2
0	88843	5510.2	400.2
0	88844	5510.2	300.2
0	88845	5510.2	200.2
0	89004	5520.2	500.2
0	89005	5520.2	400.2
0	89006	5520.2	300.2
0	89007	5520.2	200.2
0	89166	5530.2	500.2
0	89167	5530.2	400.2
0	89168	5530.2	300.2
0	89169	5530.2	200.2
0	89328	5540.2	500.2
0	89329	5540.2	400.2
0	89330	5540.2	300.2
0	89331	5540.2	200.2
0	89490	5550.2	500.2
0	89491	5550.2	400.2
0	89492	5550.2	300.2
0	89493	5550.2	200.2
0	89652	5560.2	500.2
0	89653	5560.2	400.2
0	89654	5560.2	300.2
0	89655	5560.2	200.2
0	89814	5570.2	500.2
0	89815	5570.2	400.2
0	89816	5570.2	300.2
0	89817	5570.2	200.2
0	89976	5580.2	500.2
0	89977	5580.2	400.2
0	89978	5580.2	300.2
0	89979	5580.2	200.2
0	90138	5590.2	500.2
0	90139	5590.2	400.2
0	90140	5590.2	300.2
0	90141	5590.2	200.2
0	90300	5600.2	500.2
0	90301	5600.2	400.2
0	90302	5600.2	300.2
0	90303	5600.2	200.2
0	90462	5610.2	500.2
0	90463	5610.2	400.2
0	90464	5610.2	300.2
0	90465	5610.2	200.2
0	90624	5620.2	500.2
0	90625	5620.2	400.2
0	90626	5620.2	300.2
0	90627	5620.2	200.2
0	90786	5630.2	500.2
0	90787	5630.2	400.2
0	90788	5630.2	300.2
0	90789	5630.2	200.2
0	90948	5640.2	500.2
0	90949	5640.2	400.2
0	90950	5640.2	300.2
0	90951	5640.2	200.2
0	91110	5650.2	500.2
0	91111	5650.2	400.2
0	91112	5650.2	300.2
0	91113	5650.2	200.2
0	91272	5660.2	500.2
0	91273	5660.2	400.2
0	91274	5660.2	300.2
0	91275	5660.2	200.2
0	91434	5670.2	500.2
0	91435	5670.2	400.2
0	91436	5670.2	300.2
0	91437	5670.2	200.2
0	91596	5680.2	500.2
0	91597	5680.2	400.2
0	91598	5680.2	300.2
0	91599	5680.2	200.2
0	91758	5690.2	500.2
0	91759	5690.2	400.2
0	91760	5690.2	300.2
0	91761	5690.2	200.2
0	91920	5700.2	500.2
0	91921	5700.2	400.2
0	91922	5700.2	300.2
0	91923	5700.2	200.2
0	92082	5710.2	500.2
0	92083	5710.2	400.2
0	92084	5710.2	300.2
0	92085	5710.2	200.2
0	92244	5720.2	500.2
0	92245	5720.2	400.2
0	92246	5720.2	300.2
0	92247	5720.2	200.2
0	92406	5730.2	500.2
0	92407	5730.2	400.2
0	92408	5730.2	300.2
0	92409	5730.2	200.2
0	92568	5740.2	500.2
0	92569	5740.2	400.2
0	92570	5740.2	300.2
0	92571	5740.2	200.2
0	92730	5750.2	500.2
0	92731	5750.2	400.2
0	92732	5750.2	300.2
0	92733	5750.2	200.2
0	92892	5760.2	500.2
0	92893	5760.2	400.2
0	92894	5760.2	300.2
0	92895	5760.2	200.2
0	93054	5770.2	500.2
0	93055	5770.2	400.2
0	93056	5770.2	300.2
0	93057	5770.2	200.2
0	93216	5780.2	500.2
0	93217	5780.2	400.2
0	93218	5780.2	300.2
0	93219	5780.2	200.2
0	93378	5790.2	500.2
0	93379	5790.2	400.2
0	93380	5790.2	300.2
0	93381	5790.2	200.2
0	93540	5800.2	500.2
0	93541	5800.2	400.2
0	93542	5800.2	300.2
0	93543	5800.2	200.2
0	93702	5810.2	500.2
0	93703	5810.2	400.2
0	93704	5810.2	300.2
0	93705	5810.2	200.2
0	93864	5820.2	500.2
0	93865	5820.2	400.2
0	93866	5820.2	300.2
0	93867	5820.2	200.2
0	94026	5830.2	500.2
0	94027	5830.2	400.2
0	94028	5830.2	300.2
0	94029	5830.2	200.2
0	94188	5840.2	500.2
0	94189	5840.2	400.2
0	94190	5840.2	300.2
0	94191	5840.2	200.2
0	94350	5850.2	500.2
0	94351	5850.2	400.2
0	94352	5850.2	300.2
0	94353	5850.2	200.2
0	94512	5860.2	500.2
0	94513	5860.2	400.2
0	94514	5860.2	300.2
0	94515	5860.2	200.2
0	94674	5870.2	500.2
0	94675	5870.2	400.2
0	94676	5870.2	300.2
0	94677	5870.2	200.2
0	94836	5880.2	500.2
0	94837	5880.2	400.2
0	94838	5880.2	300.2
0	94839	5880.2	200.2
0	94998	5890.2	500.2
0	94999	5890.2	400.2
0	95000	5890.2	300.2
0	95001	5890.2	200.2
0	95160	5900.2	500.2
0	95161	5900.2	400.2
0	95162	5900.2	300.2
0	95163	5900.2	200.2
0	95322	5910.2	500.2
0	95323	5910.2	400.2
0	95324	5910.2	300.2
0	95325	5910.2	200.2
0	95484	5920.2	500.2
0	95485	5920.2	400.2
0	95486	5920.2	300.2
0	95487	5920.2	200.2
0	95646	5930.2	500.2
0	95647	5930.2	400.2
0	95648	5930.2	300.2
0	95649	5930.2	200.2
0	95808	5940.2	500.2
0	95809	5940.2	400.2
0	95810	5940.2	300.2
0	95811	5940.2	200.2
0	95970	5950.2	500.2
0	95971	5950.2	400.2
0	95972	5950.2	300.2
0	95973	5950.2	200.2
0	96132	5960.2	500.2
0	96133	5960.2	400.2
0	96134	5960.2	300.2
0	96135	5960.2	200.2
0	96294	5970.2	500.2
0	96295	5970.2	400.2
0	96296	5970.2	300.2
0	96297	5970.2	200.2
0	96456	5980.2	500.2
0	96457	5980.2	400.2
0	96458	5980.2	300.2
0	96459	5980.2	200.2
0	96618	5990.2	500.2
0	96619	5990.2	400.2
0	96620	5990.2	300.2
0	96621	5990.2	200.2
0	96780	6000.2	500.2
0	96781	6000.2	400.2
0	96782	6000.2	300.2
0	96783	6000.2	200.2
0	96942	6010.2	500.2
0	96943	6010.2	400.2
0	96944	6010.2	300.2
0	96945	6010.2	200.2
0	97104	6020.2	500.2
0	97105	6020.2	400.2
0	97106	6020.2	300.2
0	97107	6020.2	200.2
0	97266	6030.2	500.2
0	97267	6030.2	400.2
0	97268	6030.2	300.2
0	97269	6030.2	200.2
0	97428	6040.2	500.2
0	97429	6040.2	400.2
0	97430	6040.2	300.2
0	97431	6040.2	200.2
0	97590	6050.2	500.2
0	97591	6050.2	400.2
0	97592	6050.2	300.2
0	97593	6050.2	200.2
0	97752	6060.2	500.2
0	97753	6060.2	400.2
0	97754	6060.2	300.2
0	97755	6060.2	200.2
0	97914	6070.2	500.2
0	97915	6070.2	400.2
0	97916	6070.2	300.2
0	97917	6070.2	200.2
0	98076	6080.2	500.2
0	98077	6080.2	400.2
0	98078	6080.2	300.2
0	98079	6080.2	200.2
0	98238	6090.2	500.2
0	98239	6090.2	400.2
0	98240	6090.2	300.2
0	98241	6090.2	200.2
0	98400	6100.2	500.2
0	98401	6100.2	400.2
0	98402	6100.2	300.2
0	98403	6100.2	200.2
0	98562	6110.2	500.2
0	98563	6110.2	400.2
0	98564	6110.2	300.2
0	98565	6110.2	200.2
0	98724	6120.2	500.2
0	98725	6120.2	400.2
0	98726	6120.2	300.2
0	98727	6120.2	200.2
0	98886	6130.2	500.2
0	98887	6130.2	400.2
0	98888	6130.2	300.2
0	98889	6130.2	200.2
0	99048	6140.2	500.2
0	99049	6140.2	400.2
0	99050	6140.2	300.2
0	99051	6140.2	200.2
0	99210	6150.2	500.2
0	99211	6150.2	400.2
0	99212	6150.2	300.2
0	99213	6150.2	200.2
0	99372	6160.2	500.2
0	99373	6160.2	400.2
0	99374	6160.2	300.2
0	99375	6160.2	200.2
0	99534	6170.2	500.2
0	99535	6170.2	400.2
0	99536	6170.2	300.2
0	99537	6170.2	200.2
0	99696	6180.2	500.2
0	99697	6180.2	400.2
0	99698	6180.2	300.2
0	99699	6180.2	200.2
0	99858	6190.2	500.2
0	99859	6190.2	400.2
0	99860	6190.2	300.2
0	99861	6190.2	200.2
0	100020	6200.2	500.2
0	100021	6200.2	400.2
0	100022	6200.2	300.2
0	100023	6200.2	200.2
0	100182	6210.2	500.2
0	100183	6210.2	400.2
0	100184	6210.2	300.2
0	100185	6210.2	200.2
0	100344	6220.2	500.2
0	100345	6220.2	400.2
0	100346	6220.2	300.2
0	100347	6220.2	200.2
0	100506	6230.2	500.2
0	100507	6230.2	400.2
0	100508	6230.2	300.2
0	100509	6230.2	200.2
0	100668	6240.2	500.2
0	100669	6240.2	400.2
0	100670	6240.2	300.2
0	100671	6240.2	200.2
0	100830	6250.2	500.2
0	100831	6250.2	400.2
0	100832	6250.2	300.2
0	100833	6250.2	200.2
0	100992	6260.2	500.2
0	100993	6260.2	400.2
0	100994	6260.2	300.2
0	100995	6260.2	200.2
0	101154	6270.2	500.2
0	101155	6270.2	400.2
0	101156	6270.2	300.2
0	101157	6270.2	200.2
0	101316	6280.2	500.2
0	101317	6280.2	400.2
0	101318	6280.2	300.2
0	101319	6280.2	200.2
0	101478	6290.2	500.2
0	101479	6290.2	400.2
0	101480	6290.2	300.2
0	101481	6290.2	200.2
0	101640	6300.2	500.2
0	101641	6300.2	400.2
0	101642	6300.2	300.2
0	101643	6300.2	200.2
0	101802	6310.2	500.2
0	101803	6310.2	400.2
0	101804	6310.2	300.2
0	101805	6310.2	200.2
0	101964	6320.2	500.2
0	101965	6320.2	400.2
0	101966	6320.2	300.2
0	101967	6320.2	200.2
0	102126	6330.2	500.2
0	102127	6330.2	400.2
0	102128	6330.2	300.2
0	102129	6330.2	200.2
0	102288	6340.2	500.2
0	102289	6340.2	400.2
0	102290	6340.2	300.2
0	102291	6340.2	200.2
0	102450	6350.2	500.2
0	102451	6350.2	400.2
0	102452	6350.2	300.2
0	102453	6350.2	200.2
0	102612	6360.2	500.2
0	102613	6360.2	400.2
0	102614	6360.2	300.2
0	102615	6360.2	200.2
0	102774	6370.2	500.2
0	102775	6370.2	400.2
0	102776	6370.2	300.2
0	102777	6370.2	200.2
0	102936	6380.2	500.2
0	102937	6380.2	400.2
0	102938	6380.2	300.2
0	102939	6380.2	200.2
0	103098	6390.2	500.2
0	103099	6390.2	400.2
0	103100	6390.2	300.2
0	103101	6390.2	200.2
0	103260	6400.2	500.2
0	103261	6400.2	400.2
0	103262	6400.2	300.2
0	103263	6400.2	200.2
0	103422	6410.2	500.2
0	103423	6410.2	400.2
0	103424	6410.2	300.2
0	103425	6410.2	200.2
0	103584	6420.2	500.2
0	103585	6420.2	400.2
0	103586	6420.2	300.2
0	103587	6420.2	200.2
0	103746	6430.2	500.2
0	103747	6430.2	400.2
0	103748	6430.2	300.2
0	103749	6430.2	200.2
0	103908	6440.2	500.2
0	103909	6440.2	400.2
0	103910	6440.2	300.2
0	103911	6440.2	200.2
0	104070	6450.2	500.2
0	104071	6450.2	400.2
0	104072	6450.2	300.2
0	104073	6450.2	200.2
0	104232	6460.2	500.2
0	104233	6460.2	400.2
0	104234	6460.2	300.2
0	104235	6460.2	200.2
0	104394	6470.2	500.2
0	104395	6470.2	400.2
0	104396	6470.2	300.2
0	104397	6470.2	200.2
0	104556	6480.2	500.2
0	104557	6480.2	400.2
0	104558	6480.2	300.2
0	104559	6480.2	200.2
0	104718	6490.2	500.2
0	104719	6490.2	400.2
0	104720	6490.2	300.2
0	104721	6490.2	200.2
0	104880	6500.2	500.2
0	104881	6500.2	400.2
0	104882	6500.2	300.2
0	104883	6500.2	200.2
0	105042	6510.2	500.2
0	105043	6510.2	400.2
0	105044	6510.2	300.2
0	105045	6510.2	200.2
0	105204	6520.2	500.2
0	105205	6520.2	400.2
0	105206	6520.2	300.2
0	105207	6520.2	200.2
0	105366	6530.2	500.2
0	105367	6530.2	400.2
0	105368	6530.2	300.2
0	105369	6530.2	200.2
0	105528	6540.2	500.2
0	105529	6540.2	400.2
0	105530	6540.2	300.2
0	105531	6540.2	200.2
0	105690	6550.2	500.2
0	105691	6550.2	400.2
0	105692	6550.2	300.2
0	105693	6550.2	200.2
0	105852	6560.2	500.2
0	105853	6560.2	400.2
0	105854	6560.2	300.2
0	105855	6560.2	200.2
0	106014	6570.2	500.2
0	106015	6570.2	400.2
0	106016	6570.2	300.2
0	106017	6570.2	200.2
0	106176	6580.2	500.2
0	106177	6580.2	400.2
0	106178	6580.2	300.2
0	106179	6580.2	200.2
0	106338	6590.2	500.2
0	106339	6590.2	400.2
0	106340	6590.2	300.2
0	106341	6590.2	200.2
0	106500	6600.2	500.2
0	106501	6600.2	400.2
0	106502	6600.2	300.2
0	106503	6600.2	200.2
0	106662	6610.2	500.2
0	106663	6610.2	400.2
0	106664	6610.2	300.2
0	106665	6610.2	200.2
0	106824	6620.2	500.2
0	106825	6620.2	400.2
0	106826	6620.2	300.2
0	106827	6620.2	200.2
0	106986	6630.2	500.2
0	106987	6630.2	400.2
0	106988	6630.2	300.2
0	106989	6630.2	200.2
0	107148	6640.2	500.2
0	107149	6640.2	400.2
0	107150	6640.2	300.2
0	107151	6640.2	200.2
0	107310	6650.2	500.2
0	107311	6650.2	400.2
0	107312	6650.2	300.2
0	107313	6650.2	200.2
0	107472	6660.2	500.2
0	107473	6660.2	400.2
0	107474	6660.2	300.2
0	107475	6660.2	200.2
0	107634	6670.2	500.2
0	107635	6670.2	400.2
0	107636	6670.2	300.2
0	107637	6670.2	200.2
0	107796	6680.2	500.2
0	107797	6680.2	400.2
0	107798	6680.2	300.2
0	107799	6680.2	200.2
0	107958	6690.2	500.2
0	107959	6690.2	400.2
0	107960	6690.2	300.2
0	107961	6690.2	200.2
0	108120	6700.2	500.2
0	108121	6700.2	400.2
0	108122	6700.2	300.2
0	108123	6700.2	200.2
0	108282	6710.2	500.2
0	108283	6710.2	400.2
0	108284	6710.2	300.2
0	108285	6710.2	200.2
0	108444	6720.2	500.2
0	108445	6720.2	400.2
0	108446	6720.2	300.2
0	108447	6720.2	200.2
0	108606	6730.2	500.2
0	108607	6730.2	400.2
0	108608	6730.2	300.2
0	108609	6730.2	200.2
0	108768	6740.2	500.2
0	108769	6740.2	400.2
0	108770	6740.2	300.2
0	108771	6740.2	200.2
0	108930	6750.2	500.2
0	108931	6750.2	400.2
0	108932	6750.2	300.2
0	108933	6750.2	200.2
0	109092	6760.2	500.2
0	109093	6760.2	400.2
0	109094	6760.2	300.2
0	109095	6760.2	200.2
0	109254	6770.2	500.2
0	109255	6770.2	400.2
0	109256	6770.2	300.2
0	109257	6770.2	200.2
0	109416	6780.2	500.2
0	109417	6780.2	400.2
0	109418	6780.2	300.2
0	109419	6780.2	200.2
0	109578	6790.2	500.2
0	109579	6790.2	400.2
0	109580	6790.2	300.2
0	109581	6790.2	200.2
0	109740	6800.2	500.2
0	109741	6800.2	400.2
0	109742	6800.2	300.2
0	109743	6800.2	200.2
0	109902	6810.2	500.2
0	109903	6810.2	400.2
0	109904	6810.2	300.2
0	109905	6810.2	200.2
0	110064	6820.2	500.2
0	110065	6820.2	400.2
0	110066	6820.2	300.2
0	110067	6820.2	200.2
0	110226	6830.2	500.2
0	110227	6830.2	400.2
0	110228	6830.2	300.2
0	110229	6830.2	200.2
0	110388	6840.2	500.2
0	110389	6840.2	400.2
0	110390	6840.2	300.2
0	110391	6840.2	200.2
0	110550	6850.2	500.2
0	110551	6850.2	400.2
0	110552	6850.2	300.2
0	110553	6850.2	200.2
0	110712	6860.2	500.2
0	110713	6860.2	400.2
0	110714	6860.2	300.2
0	110715	6860.2	200.2
0	110874	6870.2	500.2
0	110875	6870.2	400.2
0	110876	6870.2	300.2
0	110877	6870.2	200.2
0	111036	6880.2	500.2
0	111037	6880.2	400.2
0	111038	6880.2	300.2
0	111039	6880.2	200.2
0	111198	6890.2	500.2
0	111199	6890.2	400.2
0	111200	6890.2	300.2
0	111201	6890.2	200.2
0	111360	6900.2	500.2
0	111361	6900.2	400.2
0	111362	6900.2	300.2
0	111363	6900.2	200.2
0	111522	6910.2	500.2
0	111523	6910.2	400.2
0	111524	6910.2	300.2
0	111525	6910.2	200.2
0	111684	6920.2	500.2
0	111685	6920.2	400.2
0	111686	6920.2	300.2
0	111687	6920.2	200.2
0	111846	6930.2	500.2
0	111847	6930.2	400.2
0	111848	6930.2	300.2
0	111849	6930.2	200.2
0	112008	6940.2	500.2
0	112009	6940.2	400.2
0	112010	6940.2	300.2
0	112011	6940.2	200.2
0	112170	6950.2	500.2
0	112171	6950.2	400.2
0	112172	6950.2	300.2
0	112173	6950.2	200.2
0	112332	6960.2	500.2
0	112333	6960.2	400.2
0	112334	6960.2	300.2
0	112335	6960.2	200.2
0	112494	6970.2	500.2
0	112495	6970.2	400.2
0	112496	6970.2	300.2
0	112497	6970.2	200.2
0	112656	6980.2	500.2
0	112657	6980.2	400.2
0	112658	6980.2	300.2
0	112659	6980.2	200.2
0	112818	6990.2	500.2
0	112819	6990.2	400.2
0	112820	6990.2	300.2
0	112821	6990.2	200.2
0	112980	7000.2	500.2
0	112981	7000.2	400.2
0	112982	7000.2	300.2
0	112983	7000.2	200.2
0	113142	7010.2	500.2
0	113143	7010.2	400.2
0	113144	7010.2	300.2
0	113145	7010.2	200.2
0	113304	7020.2	500.2
0	113305	7020.2	400.2
0	113306	7020.2	300.2
0	113307	7020.2	200.2
0	113466	7030.2	500.2
0	113467	7030.2	400.2
0	113468	7030.2	300.2
0	113469	7030.2	200.2
0	113628	7040.2	500.2
0	113629	7040.2	400.2
0	113630	7040.2	300.2
0	113631	7040.2	200.2
0	113790	7050.2	500.2
0	113791	7050.2	400.2
0	113792	7050.2	300.2
0	113793	7050.2	200.2
0	113952	7060.2	500.2
0	113953	7060.2	400.2
0	113954	7060.2	300.2
0	113955	7060.2	200.2
0	114114	7070.2	500.2
0	114115	7070.2	400.2
0	114116	7070.2	300.2
0	114117	7070.2	200.2
0	114276	7080.2	500.2
0	114277	7080.2	400.2
0	114278	7080.2	300.2
0	114279	7080.2	200.2
0	114438	7090.2	500.2
0	114439	7090.2	400.2
0	114440	7090.2	300.2
0	114441	7090.2	200.2
0	114600	7100.2	500.2
0	114601	7100.2	400.2
0	114602	7100.2	300.2
0	114603	7100.2	200.2
0	114762	7110.2	500.2
0	114763	7110.2	400.2
0	114764	7110.2	300.2
0	114765	7110.2	200.2
0	114924	7120.2	500.2
0	114925	7120.2	400.2
0	114926	7120.2	300.2
0	114927	7120.2	200.2
0	115086	7130.2	500.2
0	115087	7130.2	400.2
0	115088	7130.2	300.2
0	115089	7130.2	200.2
0	115248	7140.2	500.2
0	115249	7140.2	400.2
0	115250	7140.2	300.2
0	115251	7140.2	200.2
0	115410	7150.2	500.2
0	115411	7150.2	400.2
0	115412	7150.2	300.2
0	115413	7150.2	200.2
0	115572	7160.2	500.2
0	115573	7160.2	400.2
0	115574	7160.2	300.2
0	115575	7160.2	200.2
0	115734	7170.2	500.2
0	115735	7170.2	400.2
0	115736	7170.2	300.2
0	115737	7170.2	200.2
0	115896	7180.2	500.2
0	115897	7180.2	400.2
0	115898	7180.2	300.2
0	115899	7180.2	200.2
0	116058	7190.2	500.2
0	116059	7190.2	400.2
0	116060	7190.2	300.2
0	116061	7190.2	200.2
0	116220	7200.2	500.2
0	116221	7200.2	400.2
0	116222	7200.2	300.2
0	116223	7200.2	200.2
0	116382	7210.2	500.2
0	116383	7210.2	400.2
0	116384	7210.2	300.2
0	116385	7210.2	200.2
0	116544	7220.2	500.2
0	116545	7220.2	400.2
0	116546	7220.2	300.2
0	116547	7220.2	200.2
0	116796	7230.16	500.16
0	116797	7230.16	400.16
0	116798	7230.16	300.16
0	116799	7230.16	200.16
0	117787	7240.16	500.16
0	117788	7240.16	400.16
0	117789	7240.16	300.16
0	117790	7240.16	200.16
0	117932	7250.16	500.16
0	117933	7250.16	400.16
0	117934	7250.16	300.16
0	117935	7250.16	200.16
0	118077	7260.16	500.16
0	118078	7260.16	400.16
0	118079	7260.16	300.16
0	118080	7260.16	200.16
0	118222	7270.16	500.16
0	118223	7270.16	400.16
0	118224	7270.16	300.16
0	118225	7270.16	200.16
0	118367	7280.16	500.16
0	118368	7280.16	400.16
0	118369	7280.16	300.16
0	118370	7280.16	200.16
0	118512	7290.16	500.16
0	118513	7290.16	400.16
0	118514	7290.16	300.16
0	118515	7290.16	200.16
[...]
0	1058912	19810	3200
0	1058913	19810	3100
0	1058914	19810	3000
0	1058915	19810	2900
0	1058916	19810	2500
0	1059170	19810.08	3000.08
0	1059171	19810.08	2900.08
0	1059172	19810.08	2500.08
0	1059173	19810.08	2100.08
0	1059174	19810.08	3000.08
0	1059175	19810.08	2900.08
0	1059176	19810.08	2500.08
0	1059177	19810.08	2100.08
0	1059480	19810.16	2100.16
0	1059481	19810.16	1700.16
0	1059482	19810.16	1600.16
0	1059483	19810.16	1500.16
0	1059484	19810.16	1400.16
0	1059485	19810.16	1300.16
0	1059486	19810.16	1200.16
0	1059487	19810.16	1100.16
0	1059488	19810.16	1000.16
0	1059489	19810.16	900.16
0	1059490	19810.16	800.16
0	1059491	19810.16	700.16
0	1059492	19810.16	600.16
0	1059493	19810.16	500.16
0	1059494	19810.16	400.16
0	1059495	19810.16	300.16
0	1059496	19810.16	2100.16
0	1059497	19810.16	1700.16
0	1059498	19810.16	1600.16
0	1059499	19810.16	1500.16
0	1059500	19810.16	1400.16
0	1059501	19810.16	1300.16
0	1059502	19810.16	1200.16
0	1059503	19810.16	1100.16
0	1059504	19810.16	1000.16
0	1059505	19810.16	900.16
0	1059506	19810.16	800.16
0	1059507	19810.16	700.16
0	1059508	19810.16	600.16
0	1059509	19810.16	500.16
0	1059510	19810.16	400.16
0	1059511	19810.16	300.16
0	1062297	19819.92	3299.92
0	1062298	19819.92	3199.92
0	1062299	19819.92	3099.92
0	1062300	19819.92	2999.92
0	1062301	19819.92	2899.92
0	1062302	19819.92	3299.92
0	1062303	19819.92	3199.92
0	1062304	19819.92	3099.92
0	1062305	19819.92	2999.92
0	1062306	19819.92	2899.92
0	1062561	19820	3300
0	1062562	19820	3200
0	1062563	19820	3100
0	1062564	19820	3000
0	1062565	19820	2900
0	1062566	19820	2600
0	1062567	19820	2500
0	1062568	19820	3300
0	1062569	19820	3200
0	1062570	19820	3100
0	1062571	19820	3000
0	1062572	19820	2900
0	1062573	19820	2600
0	1062574	19820	2500
0	1062959	19820.08	3000.08
0	1062960	19820.08	2900.08
0	1062961	19820.08	2600.08
0	1062962	19820.08	2500.08
0	1062963	19820.08	2200.08
0	1062964	19820.08	2100.08
0	1062965	19820.08	3000.08
0	1062966	19820.08	2900.08
0	1062967	19820.08	2600.08
0	1062968	19820.08	2500.08
0	1062969	19820.08	2200.08
0	1062970	19820.08	2100.08
0	1063426	19820.16	2200.16
0	1063427	19820.16	2100.16
0	1063428	19820.16	2000.16
0	1063429	19820.16	1900.16
0	1063430	19820.16	1800.16
0	1063431	19820.16	1700.16
0	1063432	19820.16	1600.16
0	1063433	19820.16	1500.16
0	1063434	19820.16	1400.16
0	1063435	19820.16	1300.16
0	1063436	19820.16	1200.16
0	1063437	19820.16	1100.16
0	1063438	19820.16	1000.16
0	1063439	19820.16	900.16
0	1063440	19820.16	800.16
0	1063441	19820.16	700.16
0	1063442	19820.16	600.16
0	1063443	19820.16	500.16
0	1063444	19820.16	400.16
0	1063445	19820.16	300.16
0	1063446	19820.16	2200.16
0	1063447	19820.16	2100.16
0	1063448	19820.16	2000.16
0	1063449	19820.16	1900.16
0	1063450	19820.16	1800.16
0	1063451	19820.16	1700.16
0	1063452	19820.16	1600.16
0	1063453	19820.16	1500.16
0	1063454	19820.16	1400.16
0	1063455	19820.16	1300.16
0	1063456	19820.16	1200.16
0	1063457	19820.16	1100.16
0	1063458	19820.16	1000.16
0	1063459	19820.16	900.16
0	1063460	19820.16	800.16
0	1063461	19820.16	700.16
0	1063462	19820.16	600.16
0	1063463	19820.16	500.16
0	1063464	19820.16	400.16
0	1063465	19820.16	300.16
0	1064153	19829.92	3299.92
0	1064154	19829.92	3199.92
0	1064155	19829.92	3099.92
0	1064156	19829.92	2999.92
0	1064157	19829.92	2899.92
0	1064158	19829.92	3299.92
0	1064159	19829.92	3199.92
0	1064160	19829.92	3099.92
0	1064161	19829.92	2999.92
0	1064162	19829.92	2899.92
0	1064417	19830	3300
0	1064418	19830	3200
0	1064419	19830	3100
0	1064420	19830	3000
0	1064421	19830	2900
0	1064422	19830	2600
0	1064423	19830	2500
0	1064424	19830	3300
0	1064425	19830	3200
0	1064426	19830	3100
0	1064427	19830	3000
0	1064428	19830	2900
0	1064429	19830	2600
0	1064430	19830	2500
0	1064815	19830.08	3000.08
0	1064816	19830.08	2900.08
0	1064817	19830.08	2600.08
0	1064818	19830.08	2500.08
0	1064819	19830.08	2200.08
0	1064820	19830.08	2100.08
0	1064821	19830.08	3000.08
0	1064822	19830.08	2900.08
0	1064823	19830.08	2600.08
0	1064824	19830.08	2500.08
0	1064825	19830.08	2200.08
0	1064826	19830.08	2100.08
0	1065282	19830.16	2200.16
0	1065283	19830.16	2100.16
0	1065284	19830.16	2000.16
0	1065285	19830.16	1900.16
0	1065286	19830.16	1800.16
0	1065287	19830.16	1700.16
0	1065288	19830.16	1600.16
0	1065289	19830.16	1500.16
0	1065290	19830.16	1400.16
0	1065291	19830.16	1300.16
0	1065292	19830.16	1200.16
0	1065293	19830.16	1100.16
0	1065294	19830.16	1000.16
0	1065295	19830.16	900.16
0	1065296	19830.16	800.16
0	1065297	19830.16	700.16
0	1065298	19830.16	600.16
0	1065299	19830.16	500.16
0	1065300	19830.16	400.16
0	1065301	19830.16	300.16
0	1065302	19830.16	2200.16
0	1065303	19830.16	2100.16
0	1065304	19830.16	2000.16
0	1065305	19830.16	1900.16
0	1065306	19830.16	1800.16
0	1065307	19830.16	1700.16
0	1065308	19830.16	1600.16
0	1065309	19830.16	1500.16
0	1065310	19830.16	1400.16
0	1065311	19830.16	1300.16
0	1065312	19830.16	1200.16
0	1065313	19830.16	1100.16
0	1065314	19830.16	1000.16
0	1065315	19830.16	900.16
0	1065316	19830.16	800.16
0	1065317	19830.16	700.16
0	1065318	19830.16	600.16
0	1065319	19830.16	500.16
0	1065320	19830.16	400.16
0	1065321	19830.16	300.16
0	1065984	19839.92	3299.92
0	1065985	19839.92	3199.92
0	1065986	19839.92	3099.92
0	1065987	19839.92	2999.92
0	1065988	19839.92	2899.92
0	1066183	19840	3300
0	1066184	19840	3200
0	1066185	19840	3100
0	1066186	19840	3000
0	1066187	19840	2900
0	1066188	19840	3300
0	1066189	19840	3200
0	1066190	19840	3100
0	1066191	19840	3000
0	1066192	19840	2900
0	1066193	19840	2600
0	1066194	19840	2500
0	1066529	19840.08	3000.08
0	1066530	19840.08	2900.08
0	1066531	19840.08	2600.08
0	1066532	19840.08	2500.08
0	1066533	19840.08	3000.08
0	1066534	19840.08	2900.08
0	1066535	19840.08	2600.08
0	1066536	19840.08	2500.08
0	1066537	19840.08	2200.08
0	1066538	19840.08	2100.08
0	1066872	19840.16	2200.16
0	1066873	19840.16	2100.16
0	1066874	19840.16	2200.16
0	1066875	19840.16	2100.16
0	1066876	19840.16	2000.16
0	1066877	19840.16	1900.16
0	1066878	19840.16	1800.16
0	1066879	19840.16	1700.16
0	1066880	19840.16	1600.16
0	1066881	19840.16	1500.16
0	1066882	19840.16	1400.16
0	1066883	19840.16	1300.16
0	1066884	19840.16	1200.16
0	1066885	19840.16	1100.16
0	1066886	19840.16	1000.16
0	1066887	19840.16	900.16
0	1066888	19840.16	800.16
0	1066889	19840.16	700.16
0	1066890	19840.16	600.16
0	1066891	19840.16	500.16
0	1066892	19840.16	400.16
0	1066893	19840.16	300.16
0	1067333	19849.92	3299.92
0	1067334	19849.92	3199.92
0	1067335	19849.92	3099.92
0	1067336	19849.92	2999.92
0	1067337	19849.92	2899.92
0	1067532	19850	3300
0	1067533	19850	3200
0	1067534	19850	3100
0	1067535	19850	3000
0	1067536	19850	2900
0	1067537	19850	3300
0	1067538	19850	3200
0	1067539	19850	3100
0	1067540	19850	3000
0	1067541	19850	2900
0	1067542	19850	2600
0	1067543	19850	2500
0	1067878	19850.08	3000.08
0	1067879	19850.08	2900.08
0	1067880	19850.08	2600.08
0	1067881	19850.08	2500.08
0	1067882	19850.08	3000.08
0	1067883	19850.08	2900.08
0	1067884	19850.08	2600.08
0	1067885	19850.08	2500.08
0	1067886	19850.08	2200.08
0	1067887	19850.08	2100.08
0	1068221	19850.16	2200.16
0	1068222	19850.16	2100.16
0	1068223	19850.16	2200.16
0	1068224	19850.16	2100.16
0	1068225	19850.16	2000.16
0	1068226	19850.16	1900.16
0	1068227	19850.16	1800.16
0	1068228	19850.16	1700.16
0	1068229	19850.16	1600.16
0	1068230	19850.16	1500.16
0	1068231	19850.16	1400.16
0	1068232	19850.16	1300.16
0	1068233	19850.16	1200.16
0	1068234	19850.16	1100.16
0	1068235	19850.16	1000.16
0	1068236	19850.16	900.16
0	1068237	19850.16	800.16
0	1068238	19850.16	700.16
0	1068239	19850.16	600.16
0	1068240	19850.16	500.16
0	1068241	19850.16	400.16
0	1068242	19850.16	300.16
0	1068594	19860	2600
0	1068738	19860.08	2600.08
0	1068739	19860.08	2600.08
0	1068740	19860.08	2200.08
0	1068948	19860.16	2200.16
0	1068949	19860.16	2200.16
0	1068950	19860.16	1800.16
0	1068951	19860.16	1700.16
0	1068952	19860.16	1600.16
0	1068953	19860.16	1500.16
0	1068954	19860.16	1400.16
0	1068955	19860.16	1300.16
0	1068956	19860.16	1200.16
0	1068957	19860.16	1100.16
0	1068958	19860.16	1000.16
0	1068959	19860.16	900.16
0	1068960	19860.16	800.16
0	1068961	19860.16	700.16
0	1068962	19860.16	600.16
0	1068963	19860.16	500.16
0	1068964	19860.16	400.16
0	1068965	19860.16	300.16
0	1069251	19870	2600
0	1069395	19870.08	2600.08
0	1069396	19870.08	2600.08
0	1069397	19870.08	2200.08
0	1069605	19870.16	2200.16
0	1069606	19870.16	2200.16
0	1069607	19870.16	1800.16
0	1069608	19870.16	1700.16
0	1069609	19870.16	1600.16
0	1069610	19870.16	1500.16
0	1069611	19870.16	1400.16
0	1069612	19870.16	1300.16
0	1069613	19870.16	1200.16
0	1069614	19870.16	1100.16
0	1069615	19870.16	1000.16
0	1069616	19870.16	900.16
0	1069617	19870.16	800.16
0	1069618	19870.16	700.16
0	1069619	19870.16	600.16
0	1069620	19870.16	500.16
0	1069621	19870.16	400.16
0	1069622	19870.16	300.16
0	1069990	19879.92	3399.92
0	1069991	19879.92	3299.92
0	1069992	19879.92	3199.92
0	1069993	19879.92	3099.92
0	1069994	19879.92	2999.92
0	1070168	19880	3400
0	1070169	19880	3300
0	1070170	19880	3200
0	1070171	19880	3100
0	1070172	19880	3000
0	1070173	19880	3400
0	1070174	19880	3300
0	1070175	19880	3200
0	1070176	19880	3100
0	1070177	19880	3000
0	1070178	19880	2600
0	1070460	19880.08	3100.08
0	1070461	19880.08	3000.08
0	1070462	19880.08	2600.08
0	1070463	19880.08	3100.08
0	1070464	19880.08	3000.08
0	1070465	19880.08	2600.08
0	1070466	19880.08	2200.08
0	1070734	19880.16	2200.16
0	1070735	19880.16	2200.16
0	1070736	19880.16	1800.16
0	1070737	19880.16	1700.16
0	1070738	19880.16	1600.16
0	1070739	19880.16	1500.16
0	1070740	19880.16	1400.16
0	1070741	19880.16	1300.16
0	1070742	19880.16	1200.16
0	1070743	19880.16	1100.16
0	1070744	19880.16	1000.16
0	1070745	19880.16	900.16
0	1070746	19880.16	800.16
0	1070747	19880.16	700.16
0	1070748	19880.16	600.16
0	1070749	19880.16	500.16
0	1070750	19880.16	400.16
0	1070751	19880.16	300.16
0	1071122	19889.92	3399.92
0	1071123	19889.92	3299.92
0	1071124	19889.92	3199.92
0	1071125	19889.92	3099.92
0	1071126	19889.92	2999.92
0	1071294	19890	3400
0	1071295	19890	3300
0	1071296	19890	3200
0	1071297	19890	3100
0	1071298	19890	3000
0	1071299	19890	3400
0	1071300	19890	3300
0	1071301	19890	3200
0	1071302	19890	3100
0	1071303	19890	3000
0	1071304	19890	2600
0	1071579	19890.08	3100.08
0	1071580	19890.08	3000.08
0	1071581	19890.08	2600.08
0	1071582	19890.08	3100.08
0	1071583	19890.08	3000.08
0	1071584	19890.08	2600.08
0	1071585	19890.08	2200.08
0	1071822	19890.16	2200.16
0	1071823	19890.16	2200.16
0	1071824	19890.16	1800.16
0	1071825	19890.16	1700.16
0	1071826	19890.16	1600.16
0	1071827	19890.16	1500.16
0	1071828	19890.16	1400.16
0	1071829	19890.16	1300.16
0	1071830	19890.16	1200.16
0	1071831	19890.16	1100.16
0	1071832	19890.16	1000.16
0	1071833	19890.16	900.16
0	1071834	19890.16	800.16
0	1071835	19890.16	700.16
0	1071836	19890.16	600.16
0	1071837	19890.16	500.16
0	1071838	19890.16	400.16
0	1072199	19899.92	3399.92
0	1072200	19899.92	3299.92
0	1072201	19899.92	3199.92
0	1072202	19899.92	3099.92
0	1072203	19899.92	2999.92
0	1072371	19900	3400
0	1072372	19900	3300
0	1072373	19900	3200
0	1072374	19900	3100
0	1072375	19900	3000
0	1072376	19900	3400
0	1072377	19900	3300
0	1072378	19900	3200
0	1072379	19900	3100
0	1072380	19900	3000
0	1072381	19900	2600
0	1072656	19900.08	3100.08
0	1072657	19900.08	3000.08
0	1072658	19900.08	2600.08
0	1072659	19900.08	3100.08
0	1072660	19900.08	3000.08
0	1072661	19900.08	2600.08
0	1072662	19900.08	2200.08
0	1072899	19900.16	2200.16
0	1072900	19900.16	2200.16
0	1072901	19900.16	1800.16
0	1072902	19900.16	1700.16
0	1072903	19900.16	1600.16
0	1072904	19900.16	1500.16
0	1072905	19900.16	1400.16
0	1072906	19900.16	1300.16
0	1072907	19900.16	1200.16
0	1072908	19900.16	1100.16
0	1072909	19900.16	1000.16
0	1072910	19900.16	900.16
0	1072911	19900.16	800.16
0	1072912	19900.16	700.16
0	1072913	19900.16	600.16
0	1072914	19900.16	500.16
0	1072915	19900.16	400.16
0	1073276	19909.92	3399.92
0	1073277	19909.92	3299.92
0	1073278	19909.92	3199.92
0	1073279	19909.92	3099.92
0	1073280	19909.92	2999.92
0	1073448	19910	3400
0	1073449	19910	3300
0	1073450	19910	3200
0	1073451	19910	3100
0	1073452	19910	3000
0	1073453	19910	3400
0	1073454	19910	3300
0	1073455	19910	3200
0	1073456	19910	3100
0	1073457	19910	3000
0	1073458	19910	2600
0	1073733	19910.08	3100.08
0	1073734	19910.08	3000.08
0	1073735	19910.08	2600.08
0	1073736	19910.08	3100.08
0	1073737	19910.08	3000.08
0	1073738	19910.08	2600.08
0	1073739	19910.08	2200.08
0	1073976	19910.16	2200.16
0	1073977	19910.16	2200.16
0	1073978	19910.16	1800.16
0	1073979	19910.16	1700.16
0	1073980	19910.16	1600.16
0	1073981	19910.16	1500.16
0	1073982	19910.16	1400.16
0	1073983	19910.16	1300.16
0	1073984	19910.16	1200.16
0	1073985	19910.16	1100.16
0	1073986	19910.16	1000.16
0	1073987	19910.16	900.16
0	1073988	19910.16	800.16
0	1073989	19910.16	700.16
0	1073990	19910.16	600.16
0	1073991	19910.16	500.16
0	1073992	19910.16	400.16
0	1074359	19919.92	3399.92
0	1074360	19919.92	3299.92
0	1074361	19919.92	3199.92
0	1074362	19919.92	3099.92
0	1074363	19919.92	2999.92
0	1074551	19920	3400
0	1074552	19920	3300
0	1074553	19920	3200
0	1074554	19920	3100
0	1074555	19920	3000
0	1074556	19920	3400
0	1074557	19920	3300
0	1074558	19920	3200
0	1074559	19920	3100
0	1074560	19920	3000
0	1074561	19920	2700
0	1074562	19920	2600
0	1074894	19920.08	3100.08
0	1074895	19920.08	3000.08
0	1074896	19920.08	2700.08
0	1074897	19920.08	2600.08
0	1074898	19920.08	3100.08
0	1074899	19920.08	3000.08
0	1074900	19920.08	2700.08
0	1074901	19920.08	2600.08
0	1074902	19920.08	2300.08
0	1074903	19920.08	2200.08
0	1075211	19920.16	2300.16
0	1075212	19920.16	2200.16
0	1075213	19920.16	2300.16
0	1075214	19920.16	2200.16
0	1075215	19920.16	2100.16
0	1075216	19920.16	2000.16
0	1075217	19920.16	1900.16
0	1075218	19920.16	1800.16
0	1075219	19920.16	1700.16
0	1075220	19920.16	1600.16
0	1075221	19920.16	1500.16
0	1075222	19920.16	1400.16
0	1075223	19920.16	1300.16
0	1075224	19920.16	1200.16
0	1075225	19920.16	1100.16
0	1075226	19920.16	1000.16
0	1075227	19920.16	900.16
0	1075228	19920.16	800.16
0	1075229	19920.16	700.16
0	1075230	19920.16	600.16
0	1075231	19920.16	500.16
0	1075232	19920.16	400.16
0	1075671	19929.92	3399.92
0	1075672	19929.92	3299.92
0	1075673	19929.92	3199.92
0	1075674	19929.92	3099.92
0	1075675	19929.92	2999.92
0	1075863	19930	3400
0	1075864	19930	3300
0	1075865	19930	3200
0	1075866	19930	3100
0	1075867	19930	3000
0	1075868	19930	3400
0	1075869	19930	3300
0	1075870	19930	3200
0	1075871	19930	3100
0	1075872	19930	3000
0	1075873	19930	2700
0	1075874	19930	2600
0	1076206	19930.08	3100.08
0	1076207	19930.08	3000.08
0	1076208	19930.08	2700.08
0	1076209	19930.08	2600.08
0	1076210	19930.08	3100.08
0	1076211	19930.08	3000.08
0	1076212	19930.08	2700.08
0	1076213	19930.08	2600.08
0	1076214	19930.08	2300.08
0	1076215	19930.08	2200.08
0	1076523	19930.16	2300.16
0	1076524	19930.16	2200.16
0	1076525	19930.16	2300.16
0	1076526	19930.16	2200.16
0	1076527	19930.16	2100.16
0	1076528	19930.16	2000.16
0	1076529	19930.16	1900.16
0	1076530	19930.16	1800.16
0	1076531	19930.16	1700.16
0	1076532	19930.16	1600.16
0	1076533	19930.16	1500.16
0	1076534	19930.16	1400.16
0	1076535	19930.16	1300.16
0	1076536	19930.16	1200.16
0	1076537	19930.16	1100.16
0	1076538	19930.16	1000.16
0	1076539	19930.16	900.16
0	1076540	19930.16	800.16
0	1076541	19930.16	700.16
0	1076542	19930.16	600.16
0	1076543	19930.16	500.16
0	1076544	19930.16	400.16
0	1076976	19939.92	3399.92
0	1076977	19939.92	3299.92
0	1076978	19939.92	3199.92
0	1076979	19939.92	3099.92
0	1076980	19939.92	2999.92
0	1077146	19940	3400
0	1077147	19940	3300
0	1077148	19940	3200
0	1077149	19940	3100
0	1077150	19940	3000
0	1077151	19940	3400
0	1077152	19940	3300
0	1077153	19940	3200
0	1077154	19940	3100
0	1077155	19940	3000
0	1077156	19940	2700
0	1077157	19940	2600
0	1077443	19940.08	3100.08
0	1077444	19940.08	3000.08
0	1077445	19940.08	2700.08
0	1077446	19940.08	2600.08
0	1077447	19940.08	3100.08
0	1077448	19940.08	3000.08
0	1077449	19940.08	2700.08
0	1077450	19940.08	2600.08
0	1077451	19940.08	2300.08
0	1077452	19940.08	2200.08
0	1077736	19940.16	2300.16
0	1077737	19940.16	2200.16
0	1077738	19940.16	2300.16
0	1077739	19940.16	2200.16
0	1077740	19940.16	2100.16
0	1077741	19940.16	2000.16
0	1077742	19940.16	1900.16
0	1077743	19940.16	1800.16
0	1077744	19940.16	1700.16
0	1077745	19940.16	1600.16
0	1077746	19940.16	1500.16
0	1077747	19940.16	1400.16
0	1077748	19940.16	1300.16
0	1077749	19940.16	1200.16
0	1077750	19940.16	1100.16
0	1077751	19940.16	1000.16
0	1077752	19940.16	900.16
0	1077753	19940.16	800.16
0	1077754	19940.16	700.16
0	1077755	19940.16	600.16
0	1077756	19940.16	500.16
0	1077757	19940.16	400.16
0	1078112	19949.92	3399.92
0	1078113	19949.92	3299.92
0	1078114	19949.92	3199.92
0	1078115	19949.92	3099.92
0	1078116	19949.92	2999.92
0	1078281	19950	3400
0	1078282	19950	3300
0	1078283	19950	3200
0	1078284	19950	3100
0	1078285	19950	3000
0	1078286	19950	3400
0	1078287	19950	3300
0	1078288	19950	3200
0	1078289	19950	3100
0	1078290	19950	3000
0	1078291	19950	2700
0	1078292	19950	2600
0	1078577	19950.08	3100.08
0	1078578	19950.08	3000.08
0	1078579	19950.08	2700.08
0	1078580	19950.08	2600.08
0	1078581	19950.08	3100.08
0	1078582	19950.08	3000.08
0	1078583	19950.08	2700.08
0	1078584	19950.08	2600.08
0	1078585	19950.08	2300.08
0	1078586	19950.08	2200.08
0	1078869	19950.16	2300.16
0	1078870	19950.16	2200.16
0	1078871	19950.16	2300.16
0	1078872	19950.16	2200.16
0	1078873	19950.16	2100.16
0	1078874	19950.16	2000.16
0	1078875	19950.16	1900.16
0	1078876	19950.16	1800.16
0	1078877	19950.16	1700.16
0	1078878	19950.16	1600.16
0	1078879	19950.16	1500.16
0	1078880	19950.16	1400.16
0	1078881	19950.16	1300.16
0	1078882	19950.16	1200.16
0	1078883	19950.16	1100.16
0	1078884	19950.16	1000.16
0	1078885	19950.16	900.16
0	1078886	19950.16	800.16
0	1078887	19950.16	700.16
0	1078888	19950.16	600.16
0	1078889	19950.16	500.16
0	1078890	19950.16	400.16
0	1079164	19960	2700
0	1079288	19960.08	2700.08
0	1079289	19960.08	2700.08
0	1079290	19960.08	2300.08
0	1079466	19960.16	2300.16
0	1079467	19960.16	2300.16
0	1079468	19960.16	1900.16
0	1079469	19960.16	1800.16
0	1079470	19960.16	1700.16
0	1079471	19960.16	1600.16
0	1079472	19960.16	1500.16
0	1079473	19960.16	1400.16
0	1079474	19960.16	1300.16
0	1079475	19960.16	1200.16
0	1079476	19960.16	1100.16
0	1079477	19960.16	1000.16
0	1079478	19960.16	900.16
0	1079479	19960.16	800.16
0	1079480	19960.16	700.16
0	1079481	19960.16	600.16
0	1079482	19960.16	500.16
0	1079483	19960.16	400.16
0	1079703	19970	2700
0	1079827	19970.08	2700.08
0	1079828	19970.08	2700.08
0	1079829	19970.08	2300.08
0	1080005	19970.16	2300.16
0	1080006	19970.16	2300.16
0	1080007	19970.16	1900.16
0	1080008	19970.16	1800.16
0	1080009	19970.16	1700.16
0	1080010	19970.16	1600.16
0	1080011	19970.16	1500.16
0	1080012	19970.16	1400.16
0	1080013	19970.16	1300.16
0	1080014	19970.16	1200.16
0	1080015	19970.16	1100.16
0	1080016	19970.16	1000.16
0	1080017	19970.16	900.16
0	1080018	19970.16	800.16
0	1080019	19970.16	700.16
0	1080020	19970.16	600.16
0	1080021	19970.16	500.16
0	1080022	19970.16	400.16
0	1080316	19979.92	3499.92
0	1080317	19979.92	3399.92
0	1080318	19979.92	3299.92
0	1080319	19979.92	3199.92
0	1080320	19979.92	3099.92
0	1080466	19980	3500
0	1080467	19980	3400
0	1080468	19980	3300
0	1080469	19980	3200
0	1080470	19980	3100
0	1080471	19980	3500
0	1080472	19980	3400
0	1080473	19980	3300
0	1080474	19980	3200
0	1080475	19980	3100
0	1080476	19980	2700
0	1080716	19980.08	3200.08
0	1080717	19980.08	3100.08
0	1080718	19980.08	2700.08
0	1080719	19980.08	3200.08
0	1080720	19980.08	3100.08
0	1080721	19980.08	2700.08
0	1080722	19980.08	2300.08
0	1080950	19980.16	2300.16
0	1080951	19980.16	2300.16
0	1080952	19980.16	1900.16
0	1080953	19980.16	1800.16
0	1080954	19980.16	1700.16
0	1080955	19980.16	1600.16
0	1080956	19980.16	1500.16
0	1080957	19980.16	1400.16
0	1080958	19980.16	1300.16
0	1080959	19980.16	1200.16
0	1080960	19980.16	1100.16
0	1080961	19980.16	1000.16
0	1080962	19980.16	900.16
0	1080963	19980.16	800.16
0	1080964	19980.16	700.16
0	1080965	19980.16	600.16
0	1080966	19980.16	500.16
0	1080967	19980.16	400.16
0	1081284	19990.16	500.16

