version 2
run General-0-20250111-18:52:29-63570
attr configname General
attr datetime 20250111-18:52:29
attr experiment General
attr inifile shaw.ini
attr iterationvars ""
attr iterationvarsf ""
attr measurement ""
attr network src.dtnsim
attr processid 63570
attr repetition 0
attr replication #0
attr resultdir results
attr runnumber 0
attr seedset 0
param dtnsim.central.contactsFile "\"contactPlan/shaw_contact1.txt\""
param dtnsim.central.contactIdsToDelete_from_celestialA "\"2 8 59 67 70 85 90 91 122 127 136 137 145 161 172 173 178 194 241 246 255 279 286 287 291 292 295\""
param dtnsim.central.contactIdsToDelete_from_celestialB "\"14 29 42 51 56 65 74 75 78 86 93 110 123 159 175 200 203 224 233 248 258 293 300\""
param dtnsim.central.celestialA_nodes "\"1 2 3\""
param dtnsim.central.celestialB_nodes "\"4 5 6\""
param dtnsim.nodesNumber 6
param dtnsim.node[1].icon "\"receiverdish\""
param dtnsim.node[2..5].icon "\"satellite\""
param dtnsim.node[6].icon "\"receiverdish\""
param dtnsim.node[*].dtn.routing "\"cgrModel350\""
param dtnsim.node[*].dtn.routingType "\"routeListType:allPaths-firstEnding,volumeAware:allContacts,extensionBlock:on,contactPlan:global\""
param dtnsim.node[1].app.enable true
param dtnsim.node[*].app.custodyTransfer true
param dtnsim.node[1].app.bundlesNumber "\"10000\""
param dtnsim.node[1].app.start "\"0\""
param dtnsim.node[1].app.destinationEid "\"6\""
param dtnsim.node[1].app.size "\"1500\""
param dtnsim.node[1].app.interval 0.1

vector 0 dtnsim.node[6].app appBundleReceivedDelayvec:vector ETV
attr interpolationmode none
attr source appBundleReceivedDelay
attr title "appBundleReceivedDelayvec, vector"
0	5024	19.13	19.13
0	5025	19.13	19.03
0	5026	19.13	18.93
0	5027	19.13	18.83
0	5028	19.13	18.73
0	5029	19.13	18.63
0	5030	19.13	18.53
0	5031	19.13	18.43
0	5032	19.13	18.33
0	5033	19.13	18.23
0	5034	19.13	18.13
0	5035	19.13	18.03
0	5036	19.13	17.93
0	5037	19.13	17.83
0	5038	19.13	17.73
0	5039	19.13	17.63
0	5040	19.13	17.53
0	5041	19.13	17.43
0	5042	19.13	17.33
0	5043	19.13	17.23
0	5044	19.13	17.13
0	5045	19.13	17.03
0	5046	19.13	16.93
0	5047	19.13	16.83
0	5048	19.13	16.73
0	5049	19.13	16.63
0	5050	19.13	16.53
0	5051	19.13	16.43
0	5052	19.13	16.33
0	5053	19.13	16.23
0	5054	19.13	16.13
0	5055	19.13	16.03
0	5056	19.13	15.93
0	5057	19.13	15.83
0	5058	19.13	15.73
0	5059	19.13	15.63
0	5060	19.13	15.53
0	5061	19.13	15.43
0	5062	19.13	15.33
0	5063	19.13	15.23
0	5064	19.13	15.13
0	5065	19.13	15.03
0	5066	19.13	14.93
0	5067	19.13	14.83
0	5068	19.13	14.73
0	5069	19.13	14.63
0	5070	19.13	14.53
0	5071	19.13	14.43
0	5072	19.13	14.33
0	5073	19.13	14.23
0	5074	19.13	14.13
0	5075	19.13	14.03
0	5076	19.13	13.93
0	5077	19.13	13.83
0	5078	19.13	13.73
0	5079	19.13	13.63
0	5080	19.13	13.53
0	5081	19.13	13.43
0	5082	19.13	13.33
0	5083	19.13	13.23
0	5084	19.13	13.13
0	5085	19.13	13.03
0	5086	19.13	12.93
0	5087	19.13	12.83
0	5088	19.13	12.73
0	5089	19.13	12.63
0	5090	19.13	12.53
0	5091	19.13	12.43
0	5092	19.13	12.33
0	5093	19.13	12.23
0	5094	19.13	12.13
0	5095	19.13	12.03
0	5096	19.13	11.93
0	5097	19.13	11.83
0	5098	19.13	11.73
0	5099	19.13	11.63
0	5100	19.13	11.53
0	5101	19.13	11.43
0	5102	19.13	11.33
0	5103	19.13	11.23
0	5104	19.13	11.13
0	5105	19.13	11.03
0	5106	19.13	10.93
0	5107	19.13	10.83
0	5108	19.13	10.73
0	5109	19.13	10.63
0	5110	19.13	10.53
0	5111	19.13	10.43
0	5112	19.13	10.33
0	5113	19.13	10.23
0	5114	19.13	10.13
0	5115	19.13	10.03
0	5116	19.13	9.93
0	5117	19.13	9.83
0	5118	19.13	9.73
0	5119	19.13	9.63
0	5120	19.13	9.53
0	5121	19.13	9.43
0	5122	19.13	9.33
0	5123	19.13	9.23
0	5124	19.13	9.13
0	5125	19.13	9.03
0	5126	19.13	8.93
0	5127	19.13	8.83
0	5128	19.13	8.73
0	5129	19.13	8.63
0	5130	19.13	8.53
0	5131	19.13	8.43
0	5132	19.13	8.33
0	5133	19.13	8.23
0	5134	19.13	8.13
0	5135	19.13	8.03
0	5136	19.13	7.93
0	5137	19.13	7.83
0	5138	19.13	7.73
0	5139	19.13	7.63
0	5140	19.13	7.53
0	5141	19.13	7.43
0	5142	19.13	7.33
0	5143	19.13	7.23
0	5144	19.13	7.13
0	5145	19.13	7.03
0	5146	19.13	6.93
0	5147	19.13	6.83
0	5148	19.13	6.73
0	5149	19.13	6.63
0	5150	19.13	6.53
0	5151	19.13	6.43
0	5152	19.13	6.33
0	7500	25.27	12.37
0	7501	25.27	12.27
0	7502	25.27	12.17
0	7503	25.27	12.07
0	7504	25.27	11.97
0	7505	25.27	11.87
0	7506	25.27	11.77
0	7507	25.27	11.67
0	7508	25.27	11.57
0	7509	25.27	11.47
0	7510	25.27	11.37
0	7511	25.27	11.27
0	7512	25.27	11.17
0	7513	25.27	11.07
0	7514	25.27	10.97
0	7515	25.27	10.87
0	7516	25.27	10.77
0	7517	25.27	10.67
0	7518	25.27	10.57
0	7519	25.27	10.47
0	7520	25.27	10.37
0	7521	25.27	10.27
0	7522	25.27	10.17
0	7523	25.27	10.07
0	7524	25.27	9.97
0	7525	25.27	9.87
0	7526	25.27	9.77
0	7527	25.27	9.67
0	7528	25.27	9.57
0	7529	25.27	9.47
0	7530	25.27	9.37
0	7531	25.27	9.27
0	7532	25.27	9.17
0	7533	25.27	9.07
0	7534	25.27	8.97
0	7535	25.27	8.87
0	7536	25.27	8.77
0	7537	25.27	8.67
0	7538	25.27	8.57
0	7539	25.27	8.47
0	7540	25.27	8.37
0	7541	25.27	8.27
0	7542	25.27	8.17
0	7543	25.27	8.07
0	7544	25.27	7.97
0	7545	25.27	7.87
0	7546	25.27	7.77
0	7547	25.27	7.67
0	7548	25.27	7.57
0	7549	25.27	7.47
0	7550	25.27	7.37
0	7551	25.27	7.27
0	7552	25.27	7.17
0	7553	25.27	7.07
0	7554	25.27	6.97
0	7555	25.27	6.87
0	7556	25.27	6.77
0	7557	25.27	6.67
0	7558	25.27	6.57
0	7559	25.27	6.47
0	7560	25.27	6.37
0	7561	25.27	6.27
0	7562	25.27	6.17
0	7563	25.27	6.07
0	7564	25.27	5.97
0	7565	25.27	5.87
0	7566	25.27	5.77
0	7567	25.27	5.67
0	7568	25.27	5.57
0	7569	25.27	5.47
0	7570	25.27	5.37
0	7571	25.27	5.27
0	7572	25.27	5.17
0	7573	25.27	5.07
0	7574	25.27	4.97
0	7575	25.27	4.87
0	7576	25.27	4.77
0	7577	25.27	4.67
0	7578	25.27	4.57
0	7579	25.27	4.47
0	7580	25.27	4.37
0	7581	25.27	4.27
0	7582	25.27	4.17
0	7583	25.27	4.07
0	7584	25.27	3.97
0	7585	25.27	3.87
0	7586	25.27	3.77
0	7587	25.27	3.67
0	7588	25.27	3.57
0	7589	25.27	3.47
0	7590	25.27	3.37
0	7591	25.27	3.27
0	7592	25.27	3.17
0	7593	25.27	3.07
0	7594	25.27	2.97
0	7595	25.27	2.87
0	7596	25.27	2.77
0	7597	25.27	2.67
0	7598	25.27	2.57
0	7599	25.27	2.47
0	7600	25.27	2.37
0	7601	25.27	2.27
0	7602	25.27	2.17
0	7603	25.27	2.07
0	7604	25.27	1.97
0	7605	25.27	1.87
0	7606	25.27	1.77
0	7607	25.27	1.67
0	7608	25.27	1.57
0	7609	25.27	1.47
0	7610	25.27	1.37
0	7611	25.27	1.27
0	7642	25.37	1.27
0	7673	25.47	1.27
0	7704	25.57	1.27
0	7735	25.67	1.27
0	7766	25.77	1.27
0	7797	25.87	1.27
0	7828	25.97	1.27
0	8605	26.07	1.27
0	9359	26.17	1.27
0	9397	26.27	1.27
0	9435	26.37	1.27
0	9473	26.47	1.27
0	9511	26.57	1.27
0	9549	26.67	1.27
0	9587	26.77	1.27
0	9625	26.87	1.27
0	9663	26.97	1.27
0	9701	27.07	1.27
0	9739	27.17	1.27
0	9777	27.27	1.27
0	9815	27.37	1.27
0	9853	27.47	1.27
0	9891	27.57	1.27
0	9929	27.67	1.27
0	9967	27.77	1.27
0	10005	27.87	1.27
0	10043	27.97	1.27
0	10084	28.07	1.27
0	10122	28.17	1.27
0	10160	28.27	1.27
0	10198	28.37	1.27
0	10236	28.47	1.27
0	10274	28.57	1.27
0	10312	28.67	1.27
0	10350	28.77	1.27
0	10388	28.87	1.27
0	10423	28.97	1.27
0	13394	43.13	15.33
0	13395	43.13	15.23
0	13396	43.13	15.13
0	13397	43.13	15.03
0	13398	43.13	14.93
0	13399	43.13	14.83
0	13400	43.13	14.73
0	13401	43.13	14.63
0	13402	43.13	14.53
0	13403	43.13	14.43
0	13404	43.13	14.33
0	13405	43.13	14.23
0	13406	43.13	14.13
0	13407	43.13	14.03
0	13408	43.13	13.93
0	13409	43.13	13.83
0	13410	43.13	13.73
0	13411	43.13	13.63
0	13412	43.13	13.53
0	13413	43.13	13.43
0	13414	43.13	13.33
0	13415	43.13	13.23
0	13416	43.13	13.13
0	13417	43.13	13.03
0	13418	43.13	12.93
0	13419	43.13	12.83
0	13420	43.13	12.73
0	13421	43.13	12.63
0	13422	43.13	12.53
0	13423	43.13	12.43
0	13424	43.13	12.33
0	13425	43.13	12.23
0	13426	43.13	12.13
0	13427	43.13	12.03
0	13428	43.13	11.93
0	13429	43.13	11.83
0	13430	43.13	11.73
0	13431	43.13	11.63
0	13432	43.13	11.53
0	13433	43.13	11.43
0	13434	43.13	11.33
0	13435	43.13	11.23
0	13436	43.13	11.13
0	13437	43.13	11.03
0	13438	43.13	10.93
0	13439	43.13	10.83
0	13440	43.13	10.73
0	13441	43.13	10.63
0	13442	43.13	10.53
0	13443	43.13	10.43
0	13444	43.13	10.33
0	13445	43.13	10.23
0	13446	43.13	10.13
0	13447	43.13	10.03
0	13448	43.13	9.93
0	13449	43.13	9.83
0	13450	43.13	9.73
0	13451	43.13	9.63
0	13452	43.13	9.53
0	13453	43.13	9.43
0	13454	43.13	9.33
0	13455	43.13	9.23
0	13456	43.13	9.13
0	13457	43.13	9.03
0	13458	43.13	8.93
0	13459	43.13	8.83
0	13460	43.13	8.73
0	13461	43.13	8.63
0	13462	43.13	8.53
0	13463	43.13	8.43
0	13464	43.13	8.33
0	13465	43.13	8.23
0	13466	43.13	8.13
0	13467	43.13	8.03
0	13468	43.13	7.93
0	13469	43.13	7.83
0	13470	43.13	7.73
0	13471	43.13	7.63
0	13472	43.13	7.53
0	13473	43.13	7.43
0	13474	43.13	7.33
0	13475	43.13	7.23
0	13476	43.13	7.13
0	13477	43.13	7.03
0	13478	43.13	6.93
0	13479	43.13	6.83
0	13480	43.13	6.73
0	13481	43.13	6.63
0	13482	43.13	6.53
0	13483	43.13	6.43
0	13484	43.13	6.33
0	17052	53.27	16.37
0	17053	53.27	16.27
0	17054	53.27	16.17
0	17055	53.27	16.07
0	17056	53.27	15.97
0	17057	53.27	15.87
0	17058	53.27	15.77
0	17059	53.27	15.67
0	17060	53.27	15.57
0	17061	53.27	15.47
0	17062	53.27	15.37
0	17063	53.27	15.27
0	17064	53.27	15.17
0	17065	53.27	15.07
0	17066	53.27	14.97
0	17067	53.27	14.87
0	17068	53.27	14.77
0	17069	53.27	14.67
0	17070	53.27	14.57
0	17071	53.27	14.47
0	17072	53.27	14.37
0	17073	53.27	14.27
0	17074	53.27	14.17
0	17075	53.27	14.07
0	17076	53.27	13.97
0	17077	53.27	13.87
0	17078	53.27	13.77
0	17079	53.27	13.67
0	17080	53.27	13.57
0	17081	53.27	13.47
0	17082	53.27	13.37
0	17083	53.27	13.27
0	17084	53.27	13.17
0	17085	53.27	13.07
0	17086	53.27	12.97
0	17087	53.27	12.87
0	17088	53.27	12.77
0	17089	53.27	12.67
0	17090	53.27	12.57
0	17091	53.27	12.47
0	17092	53.27	12.37
0	17093	53.27	12.27
0	17094	53.27	12.17
0	17095	53.27	12.07
0	17096	53.27	11.97
0	17097	53.27	11.87
0	17098	53.27	11.77
0	17099	53.27	11.67
0	17100	53.27	11.57
0	17101	53.27	11.47
0	17102	53.27	11.37
0	17103	53.27	11.27
0	17104	53.27	11.17
0	17105	53.27	11.07
0	17106	53.27	10.97
0	17107	53.27	10.87
0	17108	53.27	10.77
0	17109	53.27	10.67
0	17110	53.27	10.57
0	17111	53.27	10.47
0	17112	53.27	10.37
0	17113	53.27	10.27
0	17114	53.27	10.17
0	17115	53.27	10.07
0	17116	53.27	9.97
0	17117	53.27	9.87
0	17118	53.27	9.77
0	17119	53.27	9.67
0	17120	53.27	9.57
0	17121	53.27	9.47
0	17122	53.27	9.37
0	17123	53.27	9.27
0	17124	53.27	9.17
0	17125	53.27	9.07
0	17126	53.27	8.97
0	17127	53.27	8.87
0	17128	53.27	8.77
0	17129	53.27	8.67
0	17130	53.27	8.57
0	17131	53.27	8.47
0	17132	53.27	8.37
0	17133	53.27	8.27
0	17134	53.27	8.17
0	17135	53.27	8.07
0	17136	53.27	7.97
0	17137	53.27	7.87
0	17138	53.27	7.77
0	17139	53.27	7.67
0	17140	53.27	7.57
0	17141	53.27	7.47
0	17142	53.27	7.37
0	17143	53.27	7.27
0	17144	53.27	7.17
0	17145	53.27	7.07
0	17146	53.27	6.97
0	17147	53.27	6.87
0	17148	53.27	6.77
0	17149	53.27	6.67
0	17150	53.27	6.57
0	17151	53.27	6.47
0	17152	53.27	6.37
0	17153	53.27	6.27
0	17154	53.27	6.17
0	17155	53.27	6.07
0	17156	53.27	5.97
0	17157	53.27	5.87
0	17158	53.27	5.77
0	17159	53.27	5.67
0	17160	53.27	5.57
0	17161	53.27	5.47
0	17162	53.27	5.37
0	17163	53.27	5.27
0	17164	53.27	5.17
0	17165	53.27	5.07
0	17166	53.27	4.97
0	17167	53.27	4.87
0	17168	53.27	4.77
0	17169	53.27	4.67
0	17170	53.27	4.57
0	17171	53.27	4.47
0	17172	53.27	4.37
0	17173	53.27	4.27
0	17174	53.27	4.17
0	17175	53.27	4.07
0	17176	53.27	3.97
0	17177	53.27	3.87
0	17178	53.27	3.77
0	17179	53.27	3.67
0	17180	53.27	3.57
0	17181	53.27	3.47
0	17182	53.27	3.37
0	17183	53.27	3.27
0	17184	53.27	3.17
0	17185	53.27	3.07
0	17186	53.27	2.97
0	17187	53.27	2.87
0	17188	53.27	2.77
0	17189	53.27	2.67
0	17190	53.27	2.57
0	17191	53.27	2.47
0	17192	53.27	2.37
0	17193	53.27	2.27
0	17194	53.27	2.17
0	17195	53.27	2.07
0	17196	53.27	1.97
0	17197	53.27	1.87
0	17198	53.27	1.77
0	17199	53.27	1.67
0	17200	53.27	1.57
0	17201	53.27	1.47
0	17202	53.27	1.37
0	17203	53.27	1.27
0	17690	53.37	1.27
0	18028	53.47	1.27
0	18064	53.57	1.27
0	18100	53.67	1.27
0	18136	53.77	1.27
0	18172	53.87	1.27
0	18205	53.97	1.27
0	28685	85.13	32.33
0	28686	85.13	32.23
0	28687	85.13	32.13
0	28688	85.13	32.03
0	28689	85.13	31.93
0	28690	85.13	31.83
0	28691	85.13	31.73
0	28692	85.13	31.63
0	28693	85.13	31.53
0	28694	85.13	31.43
0	28695	85.13	31.33
0	28696	85.13	31.23
0	28697	85.13	31.13
0	28698	85.13	31.03
0	28699	85.13	30.93
0	28700	85.13	30.83
0	28701	85.13	30.73
0	28702	85.13	30.63
0	28703	85.13	30.53
0	28704	85.13	30.43
0	28705	85.13	30.33
0	28706	85.13	30.23
0	28707	85.13	30.13
0	28708	85.13	30.03
0	28709	85.13	29.93
0	28710	85.13	29.83
0	28711	85.13	29.73
0	28712	85.13	29.63
0	28713	85.13	29.53
0	28714	85.13	29.43
0	28715	85.13	29.33
0	28716	85.13	29.23
0	28717	85.13	29.13
0	28718	85.13	29.03
0	28719	85.13	28.93
0	28720	85.13	28.83
0	28721	85.13	28.73
0	28722	85.13	28.63
0	28723	85.13	28.53
0	28724	85.13	28.43
0	28725	85.13	28.33
0	28726	85.13	28.23
0	28727	85.13	28.13
0	28728	85.13	28.03
0	28729	85.13	27.93
0	28730	85.13	27.83
0	28731	85.13	27.73
0	28732	85.13	27.63
0	28733	85.13	27.53
0	28734	85.13	27.43
0	28735	85.13	27.33
0	28736	85.13	27.23
0	28737	85.13	27.13
0	28738	85.13	27.03
0	28739	85.13	26.93
0	28740	85.13	26.83
0	28741	85.13	26.73
0	28742	85.13	26.63
0	28743	85.13	26.53
0	28744	85.13	26.43
0	28745	85.13	26.33
0	28746	85.13	26.23
0	28747	85.13	26.13
0	28748	85.13	26.03
0	28749	85.13	25.93
0	28750	85.13	25.83
0	28751	85.13	25.73
0	28752	85.13	25.63
0	28753	85.13	25.53
0	28754	85.13	25.43
0	28755	85.13	25.33
0	28756	85.13	25.23
0	28757	85.13	25.13
0	28758	85.13	25.03
0	28759	85.13	24.93
0	28760	85.13	24.83
0	28761	85.13	24.73
0	28762	85.13	24.63
0	28763	85.13	24.53
0	28764	85.13	24.43
0	28765	85.13	24.33
0	28766	85.13	24.23
0	28767	85.13	24.13
0	28768	85.13	24.03
0	28769	85.13	23.93
0	28770	85.13	23.83
0	28771	85.13	23.73
0	28772	85.13	23.63
0	28773	85.13	23.53
0	28774	85.13	23.43
0	28775	85.13	23.33
0	28776	85.13	23.23
0	28777	85.13	23.13
0	28778	85.13	23.03
0	28779	85.13	22.93
0	28780	85.13	22.83
0	28781	85.13	22.73
0	28782	85.13	22.63
0	28783	85.13	22.53
0	28784	85.13	22.43
0	28785	85.13	22.33
0	28786	85.13	22.23
0	28787	85.13	22.13
0	28788	85.13	22.03
0	28789	85.13	21.93
0	28790	85.13	21.83
0	28791	85.13	21.73
0	28792	85.13	21.63
0	28793	85.13	21.53
0	28794	85.13	21.43
0	28795	85.13	21.33
0	28796	85.13	21.23
0	28797	85.13	21.13
0	28798	85.13	21.03
0	28799	85.13	20.93
0	28800	85.13	20.83
0	28801	85.13	20.73
0	28802	85.13	20.63
0	28803	85.13	20.53
0	28804	85.13	20.43
0	28805	85.13	20.33
0	28806	85.13	20.23
0	28807	85.13	20.13
0	28808	85.13	20.03
0	28809	85.13	19.93
0	28810	85.13	19.83
0	28811	85.13	19.73
0	28812	85.13	19.63
0	28813	85.13	19.53
0	28814	85.13	19.43
0	28815	85.13	19.33
0	28816	85.13	19.23
0	28817	85.13	19.13
0	28818	85.13	19.03
0	28819	85.13	18.93
0	28820	85.13	18.83
0	28821	85.13	18.73
0	28822	85.13	18.63
0	28823	85.13	18.53
0	28824	85.13	18.43
0	28825	85.13	18.33
0	28826	85.13	18.23
0	28827	85.13	18.13
0	28828	85.13	18.03
0	28829	85.13	17.93
0	28830	85.13	17.83
0	28831	85.13	17.73
0	28832	85.13	17.63
0	28833	85.13	17.53
0	28834	85.13	17.43
0	28835	85.13	17.33
0	28836	85.13	17.23
0	28837	85.13	17.13
0	28838	85.13	17.03
0	28839	85.13	16.93
0	28840	85.13	16.83
0	28841	85.13	16.73
0	28842	85.13	16.63
0	28843	85.13	16.53
0	28844	85.13	16.43
0	28845	85.13	16.33
0	28846	85.13	16.23
0	28847	85.13	16.13
0	28848	85.13	16.03
0	28849	85.13	15.93
0	28850	85.13	15.83
0	28851	85.13	15.73
0	28852	85.13	15.63
0	28853	85.13	15.53
0	28854	85.13	15.43
0	28855	85.13	15.33
0	28856	85.13	15.23
0	28857	85.13	15.13
0	28858	85.13	15.03
0	28859	85.13	14.93
0	28860	85.13	14.83
0	28861	85.13	14.73
0	28862	85.13	14.63
0	28863	85.13	14.53
0	28864	85.13	14.43
0	28865	85.13	14.33
0	28866	85.13	14.23
0	28867	85.13	14.13
0	28868	85.13	14.03
0	28869	85.13	13.93
0	28870	85.13	13.83
0	28871	85.13	13.73
0	28872	85.13	13.63
0	28873	85.13	13.53
0	28874	85.13	13.43
0	28875	85.13	13.33
0	28876	85.13	13.23
0	28877	85.13	13.13
0	28878	85.13	13.03
0	28879	85.13	12.93
0	28880	85.13	12.83
0	28881	85.13	12.73
0	28882	85.13	12.63
0	28883	85.13	12.53
0	28884	85.13	12.43
0	28885	85.13	12.33
0	28886	85.13	12.23
0	28887	85.13	12.13
0	28888	85.13	12.03
0	28889	85.13	11.93
0	28890	85.13	11.83
0	28891	85.13	11.73
0	28892	85.13	11.63
0	28893	85.13	11.53
0	28894	85.13	11.43
0	28895	85.13	11.33
0	28896	85.13	11.23
0	28897	85.13	11.13
0	28898	85.13	11.03
0	28899	85.13	10.93
0	28900	85.13	10.83
0	28901	85.13	10.73
0	28902	85.13	10.63
0	28903	85.13	10.53
0	28904	85.13	10.43
0	28905	85.13	10.33
0	28906	85.13	10.23
0	28907	85.13	10.13
0	28908	85.13	10.03
0	28909	85.13	9.93
0	28910	85.13	9.83
0	28911	85.13	9.73
0	28912	85.13	9.63
0	28913	85.13	9.53
0	28914	85.13	9.43
0	28915	85.13	9.33
0	28916	85.13	9.23
0	28917	85.13	9.13
0	28918	85.13	9.03
0	28919	85.13	8.93
0	28920	85.13	8.83
0	28921	85.13	8.73
0	28922	85.13	8.63
0	28923	85.13	8.53
0	28924	85.13	8.43
0	28925	85.13	8.33
0	32262	88.37	11.47
0	32263	88.37	11.37
0	32264	88.37	11.27
0	32265	88.37	11.17
0	32266	88.37	11.07
0	32267	88.37	10.97
0	32268	88.37	10.87
0	32269	88.37	10.77
0	32270	88.37	10.67
0	32271	88.37	10.57
0	32272	88.37	10.47
0	32273	88.37	10.37
0	32274	88.37	10.27
0	32275	88.37	10.17
0	32276	88.37	10.07
0	32277	88.37	9.97
0	32278	88.37	9.87
0	32279	88.37	9.77
0	32280	88.37	9.67
0	32281	88.37	9.57
0	32282	88.37	9.47
0	32283	88.37	9.37
0	32284	88.37	9.27
0	32285	88.37	9.17
0	32286	88.37	9.07
0	32287	88.37	8.97
0	32288	88.37	8.87
0	32289	88.37	8.77
0	32290	88.37	8.67
0	32291	88.37	8.57
0	32292	88.37	8.47
0	32293	88.37	8.37
0	32294	88.37	8.27
0	32295	88.37	8.17
0	32296	88.37	8.07
0	32297	88.37	7.97
0	32298	88.37	7.87
0	32299	88.37	7.77
0	32300	88.37	7.67
0	32301	88.37	7.57
0	32302	88.37	7.47
0	32303	88.37	7.37
0	32304	88.37	7.27
0	32305	88.37	7.17
0	32306	88.37	7.07
0	32307	88.37	6.97
0	32308	88.37	6.87
0	32309	88.37	6.77
0	32310	88.37	6.67
0	32311	88.37	6.57
0	32312	88.37	6.47
0	32313	88.37	6.37
0	32314	88.37	6.27
0	32315	88.37	6.17
0	32316	88.37	6.07
0	32317	88.37	5.97
0	32318	88.37	5.87
0	32319	88.37	5.77
0	32320	88.37	5.67
0	32321	88.37	5.57
0	32322	88.37	5.47
0	32323	88.37	5.37
0	32324	88.37	5.27
0	32325	88.37	5.17
0	32326	88.37	5.07
0	32327	88.37	4.97
0	32328	88.37	4.87
0	32329	88.37	4.77
0	32330	88.37	4.67
0	32331	88.37	4.57
0	32332	88.37	4.47
0	32333	88.37	4.37
0	32334	88.37	4.27
0	32335	88.37	4.17
0	32336	88.37	4.07
0	32337	88.37	3.97
0	32338	88.37	3.87
0	32339	88.37	3.77
0	32340	88.37	3.67
0	32341	88.37	3.57
0	32342	88.37	3.47
0	32343	88.37	3.37
0	32344	88.37	3.27
0	32345	88.37	3.17
0	32346	88.37	3.07
0	32347	88.37	2.97
0	32348	88.37	2.87
0	32349	88.37	2.77
0	32350	88.37	2.67
0	32351	88.37	2.57
0	32352	88.37	2.47
0	32353	88.37	2.37
0	32354	88.37	2.27
0	32355	88.37	2.17
0	32356	88.37	2.07
0	32357	88.37	1.97
0	32358	88.37	1.87
0	32359	88.37	1.77
0	32360	88.37	1.67
0	32361	88.37	1.57
0	32362	88.37	1.47
0	32363	88.37	1.37
0	32701	88.47	1.37
0	32940	88.57	1.37
0	32977	88.67	1.37
0	33014	88.77	1.37
0	33051	88.87	1.37
0	33088	88.97	1.37
0	33127	89.07	1.37
0	33164	89.17	1.37
0	33201	89.27	1.37
0	33442	89.37	1.37
0	33481	89.47	1.37
0	33520	89.57	1.37
0	33559	89.67	1.37
0	33598	89.77	1.37
0	33637	89.87	1.37
0	33676	89.97	1.37
0	33716	90.07	1.37
0	33754	90.17	1.37
0	33792	90.27	1.37
0	33830	90.37	1.37
0	33868	90.47	1.37
0	33906	90.57	1.37
0	33944	90.67	1.37
0	33982	90.77	1.37
0	34020	90.87	1.37
0	34058	90.97	1.37
0	34096	91.07	1.37
0	34134	91.17	1.37
0	34172	91.27	1.37
0	34210	91.37	1.37
0	34248	91.47	1.37
0	34286	91.57	1.37
0	34324	91.67	1.37
0	34362	91.77	1.37
0	34400	91.87	1.37
0	34438	91.97	1.37
0	34479	92.07	1.37
0	34516	92.17	1.37
0	34553	92.27	1.37
0	34590	92.37	1.37
0	34627	92.47	1.37
0	34664	92.57	1.37
0	34701	92.67	1.37
0	34738	92.77	1.37
0	34775	92.87	1.37
0	34812	92.97	1.37
0	34849	93.07	1.37
0	34886	93.17	1.37
0	34923	93.27	1.37
0	34960	93.37	1.37
0	34997	93.47	1.37
0	35034	93.57	1.37
0	35071	93.67	1.37
0	35108	93.77	1.37
0	35145	93.87	1.37
0	35182	93.97	1.37
0	35221	94.07	1.37
0	35258	94.17	1.37
0	35295	94.27	1.37
0	35332	94.37	1.37
0	35369	94.47	1.37
0	35406	94.57	1.37
0	35443	94.67	1.37
0	35480	94.77	1.37
0	35517	94.87	1.37
0	35554	94.97	1.37
0	35585	95.07	1.37
0	35612	95.17	1.37
0	35639	95.27	1.37
0	35666	95.37	1.37
0	35693	95.47	1.37
0	35720	95.57	1.37
0	35747	95.67	1.37
0	35774	95.77	1.37
0	35801	95.87	1.37
0	35822	95.97	1.37
0	42316	113.13	18.43
0	42317	113.13	18.33
0	42318	113.13	18.13
0	42319	113.13	18.03
0	42320	113.13	17.93
0	42321	113.13	17.83
0	42322	113.13	17.73
0	42323	113.13	17.63
0	42324	113.13	17.53
0	42325	113.13	17.43
0	42326	113.13	17.33
0	42327	113.13	17.23
0	42328	113.13	17.13
0	42329	113.13	17.03
0	42330	113.13	16.93
0	42331	113.13	16.83
0	42332	113.13	16.73
0	42333	113.13	16.63
0	42334	113.13	16.53
0	42335	113.13	16.43
0	42336	113.13	16.33
0	42337	113.13	16.23
0	42338	113.13	16.13
0	42339	113.13	16.03
0	42340	113.13	15.93
0	42341	113.13	15.83
0	42342	113.13	15.73
0	42343	113.13	15.63
0	42344	113.13	15.53
0	42345	113.13	15.43
0	42346	113.13	15.33
0	42347	113.13	15.23
0	42348	113.13	15.13
0	42349	113.13	15.03
0	42350	113.13	14.93
0	42351	113.13	14.83
0	42352	113.13	14.73
0	42353	113.13	14.63
0	42354	113.13	14.53
0	42355	113.13	14.43
0	42356	113.13	14.33
0	42357	113.13	14.23
0	42358	113.13	14.13
0	42359	113.13	14.03
0	42360	113.13	13.93
0	42361	113.13	13.83
0	42362	113.13	13.73
0	42363	113.13	13.63
0	42364	113.13	13.53
0	42365	113.13	13.43
0	42366	113.13	13.33
0	42367	113.13	13.23
0	42368	113.13	13.13
0	42369	113.13	13.03
0	42370	113.13	12.93
0	42371	113.13	12.83
0	42372	113.13	12.73
0	42373	113.13	12.63
0	42374	113.13	12.53
0	42375	113.13	12.43
0	42376	113.13	12.33
0	42377	113.13	12.23
0	42378	113.13	12.13
0	42379	113.13	12.03
0	42380	113.13	11.93
0	42381	113.13	11.83
0	42382	113.13	11.73
0	42383	113.13	11.63
0	42384	113.13	11.53
0	42385	113.13	11.43
0	42386	113.13	11.33
0	42387	113.13	18.23
0	42388	113.13	11.23
0	42389	113.13	11.13
0	42390	113.13	11.03
0	42391	113.13	10.93
0	42392	113.13	10.83
0	42393	113.13	10.73
0	42394	113.13	10.63
0	42395	113.13	10.53
0	42396	113.13	10.43
0	42397	113.13	10.33
0	42398	113.13	10.23
0	42399	113.13	10.13
0	42400	113.13	10.03
0	42401	113.13	9.93
0	42402	113.13	9.83
0	42403	113.13	9.73
0	42404	113.13	9.63
0	42405	113.13	9.53
0	42406	113.13	9.43
0	42407	113.13	9.33
0	42408	113.13	9.23
0	42409	113.13	9.13
0	42410	113.13	9.03
0	42411	113.13	8.93
0	42412	113.13	8.83
0	42413	113.13	8.73
0	42414	113.13	8.63
0	42415	113.13	8.53
0	42416	113.13	8.43
0	42417	113.13	8.33
0	42418	113.13	8.23
0	42419	113.13	8.13
0	42420	113.13	8.03
0	42421	113.13	7.93
0	42422	113.13	7.83
0	42423	113.13	7.73
0	42424	113.13	7.63
0	42425	113.13	7.53
0	42426	113.13	7.43
0	42427	113.13	7.33
0	42428	113.13	7.23
0	42429	113.13	7.13
0	42430	113.13	7.03
0	42431	113.13	6.93
0	42432	113.13	6.83
0	42433	113.13	6.73
0	42434	113.13	6.63
0	42435	113.13	6.53
0	42436	113.13	6.43
0	42437	113.13	6.33
0	49156	123.27	16.37
0	49157	123.27	16.27
0	49158	123.27	16.17
0	49159	123.27	16.07
0	49160	123.27	15.97
0	49161	123.27	15.87
0	49162	123.27	15.77
0	49163	123.27	15.67
0	49164	123.27	15.57
0	49165	123.27	15.47
0	49166	123.27	15.37
0	49167	123.27	15.27
0	49168	123.27	15.17
0	49169	123.27	15.07
0	49170	123.27	14.97
0	49171	123.27	14.87
0	49172	123.27	14.77
0	49173	123.27	14.67
0	49174	123.27	14.57
0	49175	123.27	14.47
0	49176	123.27	14.37
0	49177	123.27	14.27
0	49178	123.27	14.17
0	49179	123.27	14.07
0	49180	123.27	13.97
0	49181	123.27	13.87
0	49182	123.27	13.77
0	49183	123.27	13.67
0	49184	123.27	13.57
0	49185	123.27	13.47
0	49186	123.27	13.37
0	49187	123.27	13.27
0	49188	123.27	13.17
0	49189	123.27	13.07
0	49190	123.27	12.97
0	49191	123.27	12.87
0	49192	123.27	12.77
0	49193	123.27	12.67
0	49194	123.27	12.57
0	49195	123.27	12.47
0	49196	123.27	12.37
0	49197	123.27	12.27
0	49198	123.27	12.17
0	49199	123.27	12.07
0	49200	123.27	11.97
0	49201	123.27	11.87
0	49202	123.27	11.77
0	49203	123.27	11.67
0	49204	123.27	11.57
0	49205	123.27	11.47
0	49206	123.27	11.37
0	49207	123.27	11.27
0	49208	123.27	11.17
0	49209	123.27	11.07
0	49210	123.27	10.97
0	49211	123.27	10.87
0	49212	123.27	10.77
0	49213	123.27	10.67
0	49214	123.27	10.57
0	49215	123.27	10.47
0	49216	123.27	10.37
0	49217	123.27	10.27
0	49218	123.27	10.17
0	49219	123.27	10.07
0	49220	123.27	9.97
0	49221	123.27	9.87
0	49222	123.27	9.77
0	49223	123.27	9.67
0	49224	123.27	9.57
0	49225	123.27	9.47
0	49226	123.27	9.37
0	49227	123.27	9.27
0	49228	123.27	9.17
0	49229	123.27	9.07
0	49230	123.27	8.97
0	49231	123.27	8.87
0	49232	123.27	8.77
0	49233	123.27	8.67
0	49234	123.27	8.57
0	49235	123.27	8.47
0	49236	123.27	8.37
0	49237	123.27	8.27
0	49238	123.27	8.17
0	49239	123.27	8.07
0	49240	123.27	7.97
0	49241	123.27	7.87
0	49242	123.27	7.77
0	49243	123.27	7.67
0	49244	123.27	7.57
0	49245	123.27	7.47
0	49246	123.27	7.37
0	49247	123.27	7.27
0	49248	123.27	7.17
0	49249	123.27	7.07
0	49250	123.27	6.97
0	49251	123.27	6.87
0	49252	123.27	6.77
0	49253	123.27	6.67
0	49254	123.27	6.57
0	49255	123.27	6.47
0	49256	123.27	6.37
0	49257	123.27	6.27
0	49258	123.27	6.17
0	49259	123.27	6.07
0	49260	123.27	5.97
0	49261	123.27	5.87
0	49262	123.27	5.77
0	49263	123.27	5.67
0	49264	123.27	5.57
0	49265	123.27	5.47
0	49266	123.27	5.37
0	49267	123.27	5.27
0	49268	123.27	5.17
0	49269	123.27	5.07
0	49270	123.27	4.97
0	49271	123.27	4.87
0	49272	123.27	4.77
0	49273	123.27	4.67
0	49274	123.27	4.57
0	49275	123.27	4.47
0	49276	123.27	4.37
0	49277	123.27	4.27
0	49278	123.27	4.17
0	49279	123.27	4.07
0	49280	123.27	3.97
0	49281	123.27	3.87
0	49282	123.27	3.77
0	49283	123.27	3.67
0	49284	123.27	3.57
0	49285	123.27	3.47
0	49286	123.27	3.37
0	49287	123.27	3.27
0	49288	123.27	3.17
0	49289	123.27	3.07
0	49290	123.27	2.97
0	49291	123.27	2.87
0	49292	123.27	2.77
0	49293	123.27	2.67
0	49294	123.27	2.57
0	49295	123.27	2.47
0	49296	123.27	2.37
0	49297	123.27	2.27
0	49298	123.27	2.17
0	49299	123.27	2.07
0	49300	123.27	1.97
0	49301	123.27	1.87
0	49302	123.27	1.77
0	49303	123.27	1.67
0	49304	123.27	1.57
0	49305	123.27	1.47
0	49306	123.27	1.37
0	49307	123.27	1.27
0	49796	123.37	1.27
0	50136	123.47	1.27
0	50174	123.57	1.27
0	50212	123.67	1.27
0	50250	123.77	1.27
0	50288	123.87	1.27
0	50326	123.97	1.27
0	50493	124.07	1.27
0	50953	124.17	1.27
0	51000	124.27	1.27
0	51047	124.37	1.27
0	51094	124.47	1.27
0	51141	124.57	1.27
0	51188	124.67	1.27
0	51235	124.77	1.27
0	51282	124.87	1.27
0	51329	124.97	1.27
0	51374	125.07	1.27
0	51542	125.17	1.27
0	51594	125.27	1.27
0	51650	125.37	1.27
0	51704	125.47	1.27
0	51758	125.57	1.27
0	51812	125.67	1.27
0	51866	125.77	1.27
0	51920	125.87	1.27
0	51974	125.97	1.27
0	52032	126.07	1.27
0	52084	126.17	1.27
0	52136	126.27	1.27
0	52188	126.37	1.27
0	52240	126.47	1.27
0	52292	126.57	1.27
0	52344	126.67	1.27
0	52396	126.77	1.27
0	52448	126.87	1.27
0	52500	126.97	1.27
0	52565	127.07	1.27
0	53006	128.17	2.27
0	53007	128.17	2.17
0	53008	128.17	2.07
0	53009	128.17	1.97
0	53010	128.17	1.87
0	53011	128.17	1.77
0	53012	128.17	1.67
0	53013	128.17	1.57
0	53014	128.17	1.47
0	53015	128.17	1.37
0	53016	128.17	1.27
0	53050	128.27	1.27
0	53084	128.37	1.27
0	53118	128.47	1.27
0	53152	128.57	1.27
0	53186	128.67	1.27
0	53220	128.77	1.27
0	53254	128.87	1.27
0	53287	128.97	1.27
0	53347	129.07	1.27
0	53383	129.17	1.27
0	53419	129.27	1.27
0	53455	129.37	1.27
0	53491	129.47	1.27
0	53527	129.57	1.27
0	53563	129.67	1.27
0	53599	129.77	1.27
0	53635	129.87	1.27
0	53668	129.97	1.27
0	53703	130.07	1.27
0	53743	130.17	1.27
0	53778	130.27	1.27
0	53813	130.37	1.27
0	53848	130.47	1.27
0	53883	130.57	1.27
0	53918	130.67	1.27
0	53953	130.77	1.27
0	53988	130.87	1.27
0	54020	130.97	1.27
0	54121	131.27	1.47
0	54122	131.27	1.37
0	54123	131.27	1.27
0	54157	131.37	1.27
0	54191	131.47	1.27
0	54225	131.57	1.27
0	54259	131.67	1.27
0	54293	131.77	1.27
0	54327	131.87	1.27
0	54361	131.97	1.27
0	54396	132.07	1.27
0	54433	132.17	1.27
0	54468	132.27	1.27
0	54503	132.37	1.27
0	54538	132.47	1.27
0	54573	132.57	1.27
0	54608	132.67	1.27
0	54643	132.77	1.27
0	54678	132.87	1.27
0	54713	132.97	1.27
0	54750	133.07	1.27
0	54784	133.17	1.27
0	54818	133.27	1.27
0	54852	133.37	1.27
0	54886	133.47	1.27
0	54920	133.57	1.27
0	54954	133.67	1.27
0	54988	133.77	1.27
0	55022	133.87	1.27
0	55053	133.97	1.27
0	55142	134.17	1.37
0	55143	134.17	1.27
0	55179	134.27	1.27
0	55215	134.37	1.27
0	55251	134.47	1.27
0	55287	134.57	1.27
0	55323	134.67	1.27
0	55359	134.77	1.27
0	55395	134.87	1.27
0	55430	134.97	1.27
0	55471	135.07	1.27
0	55506	135.17	1.27
0	55541	135.27	1.27
0	55576	135.37	1.27
0	55611	135.47	1.27
0	55646	135.57	1.27
0	55681	135.67	1.27
0	55716	135.77	1.27
0	55751	135.87	1.27
0	55783	135.97	1.27
0	55824	136.07	1.27
0	55865	136.17	1.27
0	55901	136.27	1.27
0	55937	136.37	1.27
0	55973	136.47	1.27
0	56009	136.57	1.27
0	56045	136.67	1.27
0	56081	136.77	1.27
0	56117	136.87	1.27
0	56152	136.97	1.27
0	56178	137.07	1.27
0	56269	137.37	1.47
0	56270	137.37	1.37
0	56304	137.47	1.37
0	56338	137.57	1.37
0	56372	137.67	1.37
0	56406	137.77	1.37
0	56440	137.87	1.37
0	56474	137.97	1.37
0	56525	138.07	1.37
0	56558	138.17	1.37
0	56590	138.27	1.37
0	56626	138.37	1.37
0	56660	138.47	1.37
0	56694	138.57	1.37
0	56728	138.67	1.37
0	56762	138.77	1.37
0	56796	138.87	1.37
0	56824	138.97	1.37
0	57254	140.28	1.38
0	57286	140.38	1.38
0	57318	140.48	1.38
0	57350	140.58	1.38
0	57382	140.68	1.38
0	57414	140.78	1.38
0	57446	140.88	1.38
0	57478	140.98	1.38
0	57510	141.08	1.38
0	57665	141.18	1.38
0	57699	141.28	1.38
0	57733	141.38	1.38
0	57767	141.48	1.38
0	57801	141.58	1.38
0	57835	141.68	1.38
0	57869	141.78	1.38
0	57903	141.88	1.38
0	57934	141.98	1.38
0	57963	142.08	1.38
0	58001	142.18	1.38
0	58058	142.28	1.38
0	58193	142.38	1.38
0	58226	142.42	4.72
0	58227	142.42	4.62
0	58228	142.42	4.52
0	58229	142.42	4.42
0	58230	142.42	4.32
0	58231	142.42	4.22
0	58232	142.42	4.12
0	58233	142.42	4.02
0	58234	142.42	3.92
0	58235	142.42	3.82
0	58236	142.42	3.72
0	58237	142.42	3.62
0	58262	142.48	1.38
0	58295	142.58	1.38
0	58328	142.68	1.38
0	58361	142.78	1.38
0	58394	142.88	1.38
0	58427	142.98	1.38
0	58552	143.08	1.38
0	58593	143.18	1.38
0	59442	145.52	3.62
0	59443	145.52	3.52
0	59487	145.62	3.52
0	59531	145.72	3.52
0	59575	145.82	3.52
0	59616	145.92	3.52
0	62617	150.13	7.63
0	62618	150.13	7.53
0	62619	150.13	7.43
0	62620	150.13	7.33
0	62621	150.13	7.23
0	62622	150.13	7.13
0	62623	150.13	7.03
0	62624	150.13	6.93
0	62625	150.13	6.83
0	62626	150.13	6.73
0	62627	150.13	6.63
0	62628	150.13	6.53
0	62629	150.13	6.43
0	62630	150.13	6.33
0	62631	150.13	6.23
0	62632	150.13	6.13
0	62633	150.13	6.03
0	62634	150.13	5.93
0	62635	150.13	5.83
0	62636	150.13	5.73
0	62637	150.13	5.63
0	62638	150.13	5.53
0	62639	150.13	5.43
0	62640	150.13	5.33
0	62641	150.13	5.23
0	62642	150.13	5.13
0	62643	150.13	5.03
0	62644	150.13	4.93
0	62645	150.13	4.83
0	62646	150.13	4.73
0	62647	150.13	4.63
0	62648	150.13	4.53
0	62649	150.13	4.43
0	62650	150.13	4.33
0	62651	150.13	4.23
0	62652	150.13	4.13
0	62653	150.13	4.03
0	62654	150.13	3.93
0	62655	150.13	3.83
0	62656	150.13	3.73
0	62657	150.13	3.63
0	62658	150.13	3.53
0	62659	150.13	3.43
0	62660	150.13	3.33
0	62661	150.13	3.23
0	62662	150.13	3.13
0	62663	150.13	3.03
0	62664	150.13	2.93
0	62665	150.13	2.83
0	62666	150.13	2.73
0	62667	150.13	2.63
0	62668	150.13	2.53
0	62669	150.13	2.43
0	62670	150.13	2.33
0	62671	150.13	2.23
0	62672	150.13	2.13
0	62673	150.13	2.03
0	62674	150.13	1.93
0	62675	150.13	1.83
0	62676	150.13	1.73
0	62677	150.13	1.63
0	62678	150.13	1.53
0	62753	150.2	1.5
0	62822	150.3	1.5
0	68122	159.39	10.49
0	68123	159.39	10.39
0	68124	159.39	10.29
0	68125	159.39	10.19
0	68126	159.39	10.09
0	68127	159.39	9.99
0	68128	159.39	9.89
0	68129	159.39	9.79
0	68130	159.39	9.69
0	68131	159.39	9.59
0	68132	159.39	9.49
0	68133	159.39	9.39
0	68134	159.39	9.29
0	68135	159.39	9.19
0	68136	159.39	9.09
0	68137	159.39	8.99
0	68138	159.39	8.89
0	68139	159.39	8.79
0	68140	159.39	8.69
0	68141	159.39	8.59
0	68142	159.39	8.49
0	68143	159.39	8.39
0	68144	159.39	8.29
0	68145	159.39	8.19
0	68146	159.39	8.09
0	68147	159.39	7.99
0	68148	159.39	7.89
0	68149	159.39	7.79
0	68150	159.39	7.69
0	68151	159.39	7.59
0	68152	159.39	7.49
0	68153	159.39	7.39
0	68154	159.39	7.29
0	68155	159.39	7.19
0	68156	159.39	7.09
0	68157	159.39	6.99
0	68158	159.39	6.89
0	68159	159.39	6.79
0	68160	159.39	6.69
0	68161	159.39	6.59
0	68162	159.39	6.49
0	68163	159.39	6.39
0	68164	159.39	6.29
0	68165	159.39	6.19
0	68166	159.39	6.09
0	68167	159.39	5.99
0	68168	159.39	5.89
0	68169	159.39	5.79
0	68170	159.39	5.69
0	68171	159.39	5.59
0	68172	159.39	5.49
0	68173	159.39	5.39
0	68174	159.39	5.29
0	68175	159.39	5.19
0	68176	159.39	5.09
0	68177	159.39	4.99
0	68178	159.39	4.89
0	68179	159.39	4.79
0	68180	159.39	4.69
0	68181	159.39	4.59
0	68182	159.39	4.49
0	68183	159.39	4.39
0	68184	159.39	4.29
0	68185	159.39	4.19
0	68186	159.39	4.09
0	68187	159.39	3.99
0	68188	159.39	3.89
0	68189	159.39	3.79
0	68190	159.39	3.69
0	68191	159.39	3.59
0	68192	159.39	3.49
0	68193	159.39	3.39
0	68194	159.39	3.29
0	68195	159.39	3.19
0	68196	159.39	3.09
0	68197	159.39	2.99
0	68198	159.39	2.89
0	68199	159.39	2.79
0	68200	159.39	2.69
0	68201	159.39	2.59
0	68202	159.39	2.49
0	68203	159.39	2.39
0	68204	159.39	2.29
0	68205	159.39	2.19
0	68206	159.39	2.09
0	68207	159.39	1.99
0	68208	159.39	1.89
0	68209	159.39	1.79
0	68210	159.39	1.69
0	68211	159.39	1.59
0	68212	159.39	1.49
0	68213	159.39	1.39
0	68259	159.49	1.39
0	68305	159.59	1.39
0	68351	159.69	1.39
0	68397	159.79	1.39
0	68443	159.89	1.39
0	68489	159.99	1.39
0	68533	160.09	1.39
0	68576	160.19	1.39
0	68803	160.29	1.39
0	68848	160.39	1.39
0	68893	160.49	1.39
0	68938	160.59	1.39
0	68983	160.69	1.39
0	69028	160.79	1.39
0	69073	160.89	1.39
0	69115	160.99	1.39
0	70136	163.13	3.43
0	70137	163.13	3.33
0	70138	163.13	3.23
0	70139	163.13	3.13
0	70140	163.13	3.03
0	70141	163.13	2.93
0	70142	163.13	2.83
0	70143	163.13	2.73
0	70144	163.13	2.63
0	70145	163.13	2.53
0	70146	163.13	2.43
0	70147	163.13	2.33
0	70148	163.13	2.23
0	70149	163.13	2.13
0	70150	163.13	2.03
0	70151	163.13	1.93
0	70152	163.13	1.83
0	70153	163.13	1.73
0	70154	163.13	1.63
0	70155	163.13	1.53
0	70156	163.13	1.43
0	70187	163.19	1.39
0	70235	163.29	1.39
0	70283	163.39	1.39
0	70331	163.49	1.39
0	70379	163.59	1.39
0	70427	163.69	1.39
0	70475	163.79	1.39
0	70523	163.89	1.39
0	70571	163.99	1.39
0	70622	164.09	1.39
0	70671	164.19	1.39
0	70720	164.29	1.39
0	70769	164.39	1.39
0	70818	164.49	1.39
0	70867	164.59	1.39
0	70916	164.69	1.39
0	70965	164.79	1.39
0	71014	164.89	1.39
0	71063	164.99	1.39
0	71118	165.09	1.39
0	71169	165.19	1.39
0	71220	165.29	1.39
0	71271	165.39	1.39
0	71322	165.49	1.39
0	71373	165.59	1.39
0	71424	165.69	1.39
0	71475	165.79	1.39
0	71526	165.89	1.39
0	71577	165.99	1.39
0	71751	166.09	1.39
0	71925	166.19	1.39
0	71979	166.29	1.39
0	72033	166.39	1.39
0	72087	166.49	1.39
0	72141	166.59	1.39
0	72195	166.69	1.39
0	72249	166.79	1.39
0	72303	166.89	1.39
0	72357	166.99	1.39
0	72413	167.09	1.39
0	72466	167.19	1.39
0	72519	167.29	1.39
0	72572	167.39	1.39
0	72625	167.49	1.39
0	72678	167.59	1.39
0	72731	167.69	1.39
0	72784	167.79	1.39
0	72837	167.89	1.39
0	72880	167.99	1.39
0	72911	168.09	1.39
0	72955	168.19	1.39
0	73008	168.29	1.39
0	73065	168.39	1.39
0	73127	168.49	1.39
0	73171	168.59	1.39
0	73223	168.69	1.39
0	73269	168.79	1.39
0	73313	168.89	1.39
0	73354	168.99	1.39
0	73384	169.09	1.39
0	73480	169.27	1.37
0	73481	169.27	1.27
0	73524	169.37	1.27
0	73567	169.47	1.27
0	73621	169.57	1.27
0	73645	169.63	1.83
0	73667	169.67	1.27
0	73710	169.77	1.27
0	73753	169.87	1.27
0	73796	169.97	1.27
0	74858	170.07	1.27
0	75584	170.17	1.27
0	75632	170.27	1.27
0	75680	170.37	1.27
0	75728	170.47	1.27
0	75778	170.57	1.27
0	75826	170.67	1.27
0	75874	170.77	1.27
0	75922	170.87	1.27
0	75967	170.97	1.27
0	76060	171.17	1.37
0	76061	171.17	1.27
0	76109	171.27	1.27
0	76158	171.37	1.27
0	76205	171.47	1.27
0	76252	171.57	1.27
0	76299	171.67	1.27
0	76346	171.77	1.27
0	76393	171.87	1.27
0	76437	171.97	1.27
0	76812	172.07	1.27
0	77070	172.17	1.27
0	77104	172.27	1.27
0	77138	172.37	1.27
0	77172	172.47	1.27
0	77206	172.57	1.27
0	77240	172.67	1.27
0	77274	172.77	1.27
0	77308	172.87	1.27
0	77342	172.97	1.27
0	77369	173.07	1.27
0	78229	182.13	10.23
0	78230	182.13	10.13
0	78231	182.13	10.03
0	78232	182.13	9.93
0	78233	182.13	9.83
0	78234	182.13	9.73
0	78235	182.13	9.63
0	78236	182.13	9.53
0	78237	182.13	9.43
0	78238	182.13	9.33
0	78239	182.13	9.23
0	78240	182.13	9.13
0	78241	182.13	9.03
0	78242	182.13	8.93
0	78243	182.13	8.83
0	78244	182.13	8.73
0	78245	182.13	8.63
0	78246	182.13	8.53
0	78247	182.13	8.43
0	78248	182.13	8.33
0	96216	211.13	37.23
0	96217	211.13	37.13
0	96218	211.13	37.03
0	96219	211.13	36.93
0	96220	211.13	36.83
0	96221	211.13	36.73
0	96222	211.13	36.63
0	96223	211.13	36.53
0	96224	211.13	36.43
0	96225	211.13	36.33
0	96226	211.13	36.23
0	96227	211.13	36.13
0	96228	211.13	36.03
0	96229	211.13	35.93
0	96230	211.13	35.83
0	96231	211.13	35.73
0	96232	211.13	35.63
0	96233	211.13	35.53
0	96234	211.13	35.43
0	96235	211.13	35.33
0	96236	211.13	35.23
0	96237	211.13	35.13
0	96238	211.13	35.03
0	96239	211.13	34.93
0	96240	211.13	34.83
0	96241	211.13	34.73
0	96242	211.13	34.63
0	96243	211.13	34.53
0	96244	211.13	34.43
0	96245	211.13	34.33
0	96246	211.13	34.23
0	96247	211.13	34.13
0	96248	211.13	34.03
0	96249	211.13	33.93
0	96250	211.13	33.83
0	96251	211.13	33.73
0	96252	211.13	33.63
0	96253	211.13	33.53
0	96254	211.13	33.43
0	96255	211.13	33.33
0	96256	211.13	33.23
0	96257	211.13	33.13
0	96258	211.13	33.03
0	96259	211.13	32.93
0	96260	211.13	32.83
0	96261	211.13	32.73
0	96262	211.13	32.63
0	96263	211.13	32.53
0	96264	211.13	32.43
0	96265	211.13	32.33
0	96266	211.13	32.23
0	96267	211.13	32.13
0	96268	211.13	32.03
0	96269	211.13	31.93
0	96270	211.13	31.83
0	96271	211.13	31.73
0	96272	211.13	31.63
0	96273	211.13	31.53
0	96274	211.13	31.43
0	96275	211.13	31.33
0	96276	211.13	31.23
0	96277	211.13	31.13
0	96278	211.13	31.03
0	96279	211.13	30.93
0	96280	211.13	30.83
0	96281	211.13	30.73
0	96282	211.13	30.63
0	96283	211.13	30.53
0	96284	211.13	30.43
0	96285	211.13	30.33
0	96286	211.13	30.23
0	96287	211.13	30.13
0	96288	211.13	30.03
0	96289	211.13	29.93
0	96290	211.13	29.83
0	96291	211.13	29.73
0	96292	211.13	29.63
0	96293	211.13	29.53
0	96294	211.13	29.43
0	96295	211.13	29.33
0	96296	211.13	29.23
0	96297	211.13	29.13
0	96298	211.13	29.03
0	96299	211.13	28.93
0	96300	211.13	28.83
0	96301	211.13	28.73
0	96302	211.13	28.63
0	96303	211.13	28.53
0	96304	211.13	28.43
0	96305	211.13	28.33
0	96306	211.13	28.23
0	96307	211.13	28.13
0	96308	211.13	28.03
0	96309	211.13	27.93
0	96310	211.13	27.83
0	96311	211.13	27.73
0	96312	211.13	27.63
0	96313	211.13	27.53
0	96314	211.13	27.43
0	96315	211.13	27.33
0	96316	211.13	27.23
0	96317	211.13	27.13
0	96318	211.13	27.03
0	96319	211.13	26.93
0	96320	211.13	26.83
0	96321	211.13	26.73
0	96322	211.13	26.63
0	96323	211.13	26.53
0	96324	211.13	26.43
0	96325	211.13	26.33
0	96326	211.13	26.23
0	96327	211.13	26.13
0	96328	211.13	26.03
0	96329	211.13	25.93
0	96330	211.13	25.83
0	96331	211.13	25.73
0	96332	211.13	25.63
0	96333	211.13	25.53
0	96334	211.13	25.43
0	96335	211.13	25.33
0	96336	211.13	25.23
0	96337	211.13	25.13
0	96338	211.13	25.03
0	96339	211.13	24.93
0	96340	211.13	24.83
0	96341	211.13	24.73
0	96342	211.13	24.63
0	96343	211.13	24.53
0	96344	211.13	24.43
0	96345	211.13	24.33
0	96346	211.13	24.23
0	96347	211.13	24.13
0	96348	211.13	24.03
0	96349	211.13	23.93
0	96350	211.13	23.83
0	96351	211.13	23.73
0	96352	211.13	23.63
0	96353	211.13	23.53
0	96354	211.13	23.43
0	96355	211.13	23.33
0	96356	211.13	23.23
0	96357	211.13	23.13
0	96358	211.13	23.03
0	96359	211.13	22.93
0	96360	211.13	22.83
0	96361	211.13	22.73
0	96362	211.13	22.63
0	96363	211.13	22.53
0	96364	211.13	22.43
0	96365	211.13	22.33
0	96366	211.13	22.23
0	96367	211.13	22.13
0	96368	211.13	22.03
0	96369	211.13	21.93
0	96370	211.13	21.83
0	96371	211.13	21.73
0	96372	211.13	21.63
0	96373	211.13	21.53
0	96374	211.13	21.43
0	96375	211.13	21.33
0	96376	211.13	21.23
0	96377	211.13	21.13
0	96378	211.13	21.03
0	96379	211.13	20.93
0	96380	211.13	20.83
0	96381	211.13	20.73
0	96382	211.13	20.63
0	96383	211.13	20.53
0	96384	211.13	20.43
0	96385	211.13	20.33
0	96386	211.13	20.23
0	96387	211.13	20.13
0	96388	211.13	20.03
0	96389	211.13	19.93
0	96390	211.13	19.83
0	96391	211.13	19.73
0	96392	211.13	19.63
0	96393	211.13	19.53
0	96394	211.13	19.43
0	96395	211.13	19.33
0	96396	211.13	19.23
0	96397	211.13	19.13
0	96398	211.13	19.03
0	96399	211.13	18.93
0	96400	211.13	18.83
0	96401	211.13	18.73
0	96402	211.13	18.63
0	96403	211.13	18.53
0	96404	211.13	18.43
0	96405	211.13	18.33
0	96406	211.13	18.23
0	96407	211.13	18.13
0	96408	211.13	18.03
0	96409	211.13	17.93
0	96410	211.13	17.83
0	96411	211.13	17.73
0	96412	211.13	17.63
0	96413	211.13	17.53
0	96414	211.13	17.43
0	96415	211.13	17.33
0	96416	211.13	17.23
0	96417	211.13	17.13
0	96418	211.13	17.03
0	96419	211.13	16.93
0	96420	211.13	16.83
0	96421	211.13	16.73
0	96422	211.13	16.63
0	96423	211.13	16.53
0	96424	211.13	16.43
0	96425	211.13	16.33
0	96426	211.13	16.23
0	96427	211.13	16.13
0	96428	211.13	16.03
0	96429	211.13	15.93
0	96430	211.13	15.83
0	96431	211.13	15.73
0	96432	211.13	15.63
0	96433	211.13	15.53
0	96434	211.13	15.43
0	96435	211.13	15.33
0	96436	211.13	15.23
0	96437	211.13	15.13
0	96438	211.13	15.03
0	96439	211.13	14.93
0	96440	211.13	14.83
0	96441	211.13	14.73
0	96442	211.13	14.63
0	96443	211.13	14.53
0	96444	211.13	14.43
0	96445	211.13	14.33
0	96446	211.13	14.23
0	96447	211.13	14.13
0	96448	211.13	14.03
0	96449	211.13	13.93
0	96450	211.13	13.83
0	96451	211.13	13.73
0	96452	211.13	13.63
0	96453	211.13	13.53
0	96454	211.13	13.43
0	96455	211.13	13.33
0	96456	211.13	13.23
0	96457	211.13	13.13
0	96458	211.13	13.03
0	96459	211.13	12.93
0	96460	211.13	12.83
0	96461	211.13	12.73
0	96462	211.13	12.63
0	96463	211.13	12.53
0	96464	211.13	12.43
0	96465	211.13	12.33
0	96466	211.13	12.23
0	96467	211.13	12.13
0	96468	211.13	12.03
0	96469	211.13	11.93
0	96470	211.13	11.83
0	96471	211.13	11.73
0	96472	211.13	11.63
0	96473	211.13	11.53
0	96474	211.13	11.43
0	96475	211.13	11.33
0	96476	211.13	11.23
0	96477	211.13	11.13
0	96478	211.13	11.03
0	96479	211.13	10.93
0	96480	211.13	10.83
0	96481	211.13	10.73
0	96482	211.13	10.63
0	96483	211.13	10.53
0	96484	211.13	10.43
0	96485	211.13	10.33
0	96486	211.13	10.23
0	96487	211.13	10.13
0	96488	211.13	10.03
0	96489	211.13	9.93
0	96490	211.13	9.83
0	96491	211.13	9.73
0	96492	211.13	9.63
0	96493	211.13	9.53
0	96494	211.13	9.43
0	96495	211.13	9.33
0	96496	211.13	9.23
0	96497	211.13	9.13
0	96498	211.13	9.03
0	96499	211.13	8.93
0	96500	211.13	8.83
0	96501	211.13	8.73
0	96502	211.13	8.63
0	96503	211.13	8.53
0	96504	211.13	8.43
0	96505	211.13	8.33
0	96506	211.13	8.23
0	96507	211.13	8.13
0	96508	211.13	8.03
0	96509	211.13	7.93
0	96510	211.13	7.83
0	96511	211.13	7.73
0	96512	211.13	7.63
0	96513	211.13	7.53
0	96514	211.13	7.43
0	96515	211.13	7.33
0	96516	211.13	7.23
0	96517	211.13	7.13
0	96518	211.13	7.03
0	96519	211.13	6.93
0	96520	211.13	6.83
0	96521	211.13	6.73
0	96522	211.13	6.63
0	96523	211.13	6.53
0	96524	211.13	6.43
0	96525	211.13	6.33
0	96526	211.13	6.23
0	96527	211.13	6.13
0	96528	211.13	6.03
0	96529	211.13	5.93
0	96530	211.13	5.83
0	96531	211.13	5.73
0	96532	211.13	5.63
0	96533	211.13	5.53
0	96534	211.13	5.43
0	96535	211.13	5.33
0	96536	211.13	5.23
0	96537	211.13	5.13
0	96538	211.13	5.03
0	96539	211.13	4.93
0	96540	211.13	4.83
0	96541	211.13	4.73
0	96542	211.13	4.63
0	96543	211.13	4.53
0	96544	211.13	4.43
0	96545	211.13	4.33
0	96546	211.13	4.23
0	96547	211.13	4.13
0	96548	211.13	4.03
0	96549	211.13	3.93
0	96550	211.13	3.83
0	96551	211.13	3.73
0	96552	211.13	3.63
0	96553	211.13	3.53
0	96554	211.13	3.43
0	96555	211.13	3.33
0	96556	211.13	3.23
0	96557	211.13	3.13
0	96558	211.13	3.03
0	96559	211.13	2.93
0	96560	211.13	2.83
0	96561	211.13	2.73
0	96562	211.13	2.63
0	96563	211.13	2.53
0	96564	211.13	2.43
0	96565	211.13	2.33
0	96566	211.13	2.23
0	96567	211.13	2.13
0	96568	211.13	2.03
0	96569	211.13	1.93
0	96570	211.13	1.83
0	96571	211.13	1.73
0	96572	211.13	1.63
0	96586	211.17	1.57
0	96609	211.27	1.57
0	97668	212.26	2.46
0	97669	212.26	2.36
0	97670	212.26	2.26
0	97671	212.26	2.16
0	97672	212.26	2.06
0	97673	212.26	1.96
0	97674	212.26	1.86
0	97675	212.26	1.76
0	97676	212.26	1.66
0	97677	212.26	1.56
0	97678	212.26	1.46
0	97681	212.28	1.38
0	97715	212.38	1.38
0	97749	212.48	1.38
0	97783	212.58	1.38
0	97817	212.68	1.38
0	97851	212.78	1.38
0	97885	212.88	1.38
0	97919	212.98	1.38
0	99217	213.08	1.38
0	101147	213.18	1.38
0	101192	213.28	1.38
0	101323	213.38	1.38
0	101444	213.48	1.38
0	101531	213.58	1.38
0	101598	213.68	1.38
0	101665	213.78	1.38
0	101732	213.88	1.38
0	101799	213.98	1.38
0	101872	214.08	1.38
0	103831	214.18	1.38
0	103914	214.28	1.38
0	103997	214.38	1.38
0	104080	214.48	1.38
0	104163	214.58	1.38
0	104246	214.68	1.38
0	104329	214.78	1.38
0	104409	214.88	1.38
0	104486	214.98	1.38
0	104567	215.08	1.38
0	104643	215.18	1.38
0	104720	215.28	1.38
0	105558	215.38	1.38
0	105642	215.48	1.38
0	105726	215.58	1.38
0	105810	215.68	1.38
0	105894	215.78	1.38
0	105978	215.88	1.38
0	106062	215.98	1.38
0	106196	216.08	1.38
0	106284	216.18	1.38
0	106363	216.28	1.38
0	106442	216.38	1.38
0	106523	216.48	1.38
0	106604	216.58	1.38
0	106685	216.68	1.38
0	106766	216.78	1.38
0	106847	216.88	1.38
0	106925	216.98	1.38
0	106994	217.08	1.38
0	107051	217.18	1.38
0	107136	217.28	1.38
0	107192	217.38	1.38
0	107248	217.48	1.38
0	107304	217.58	1.38
0	107360	217.68	1.38
0	107416	217.78	1.38
0	107472	217.88	1.38
0	107528	217.98	1.38
0	107596	218.08	1.38
0	107638	218.18	1.38
0	109837	224.37	7.47
0	109838	224.37	7.37
0	109839	224.37	7.27
0	109840	224.37	7.17
0	109841	224.37	7.07
0	109842	224.37	6.97
0	109843	224.37	6.87
0	109844	224.37	6.77
0	109845	224.37	6.67
0	109846	224.37	6.57
0	109847	224.37	6.47
0	109848	224.37	6.37
0	109849	224.37	6.27
0	109850	224.37	6.17
0	109851	224.37	6.07
0	109852	224.37	5.97
0	109853	224.37	5.87
0	109854	224.37	5.77
0	109855	224.37	5.67
0	109856	224.37	5.57
0	109857	224.37	5.47
0	109858	224.37	5.37
0	109859	224.37	5.27
0	109860	224.37	5.17
0	109861	224.37	5.07
0	109862	224.37	4.97
0	109863	224.37	4.87
0	109864	224.37	4.77
0	109865	224.37	4.67
0	109866	224.37	4.57
0	109867	224.37	4.47
0	109868	224.37	4.37
0	109869	224.37	4.27
0	109870	224.37	4.17
0	109871	224.37	4.07
0	109872	224.37	3.97
0	109873	224.37	3.87
0	109874	224.37	3.77
0	109875	224.37	3.67
0	109876	224.37	3.57
0	109877	224.37	3.47
0	109878	224.37	3.37
0	109879	224.37	3.27
0	109880	224.37	3.17
0	109881	224.37	3.07
0	109882	224.37	2.97
0	109883	224.37	2.87
0	109884	224.37	2.77
0	109885	224.37	2.67
0	109886	224.37	2.57
0	109887	224.37	2.47
0	109888	224.37	2.37
0	109889	224.37	2.27
0	109890	224.37	2.17
0	109891	224.37	2.07
0	109892	224.37	1.97
0	109893	224.37	1.87
0	109894	224.37	1.77
0	109895	224.37	1.67
0	109896	224.37	1.57
0	109897	224.37	1.47
0	109898	224.37	1.37
0	110120	224.47	1.37
0	110283	224.57	1.37
0	110324	224.67	1.37
0	110365	224.77	1.37
0	110406	224.87	1.37
0	110447	224.97	1.37
0	110492	225.07	1.37
0	110533	225.17	1.37
0	110574	225.27	1.37
0	110739	225.37	1.37
0	110782	225.47	1.37
0	110825	225.57	1.37
0	110868	225.67	1.37
0	110911	225.77	1.37
0	110954	225.87	1.37
0	110994	225.97	1.37
0	111032	226.07	1.37
0	111071	226.17	1.37
0	111111	226.27	1.37
0	111149	226.37	1.37
0	111187	226.47	1.37
0	111225	226.57	1.37
0	111263	226.67	1.37
0	111301	226.77	1.37
0	111339	226.87	1.37
0	111377	226.97	1.37
0	111461	227.07	1.37
0	111499	227.17	1.37
0	111537	227.27	1.37
0	111575	227.37	1.37
0	111613	227.47	1.37
0	111651	227.57	1.37
0	111689	227.67	1.37
0	111727	227.77	1.37
0	111765	227.87	1.37
0	111803	227.97	1.37
0	111923	228.07	1.37
0	111975	228.17	1.37
0	112052	228.27	1.37
0	112105	228.37	1.37
0	112158	228.47	1.37
0	112211	228.57	1.37
0	112264	228.67	1.37
0	112317	228.77	1.37
0	112370	228.87	1.37
0	112420	228.97	1.37
0	112533	229.17	1.47
0	112534	229.17	1.37
0	112597	229.27	1.37
0	112661	229.37	1.37
0	112723	229.47	1.37
0	112785	229.57	1.37
0	112847	229.67	1.37
0	112909	229.77	1.37
0	112971	229.87	1.37
0	113032	229.97	1.37
0	113091	230.07	1.37
0	113156	230.17	1.37
0	113217	230.27	1.37
0	113218	230.27	1.27
0	113280	230.37	1.27
0	113341	230.47	1.27
0	113400	230.57	1.27
0	113459	230.67	1.27
0	113518	230.77	1.27
0	113577	230.87	1.27
0	113629	230.97	1.27
0	113717	231.07	1.27
0	113768	231.17	1.27
0	113822	231.27	1.27
0	113867	231.37	1.27
0	113912	231.47	1.27
0	113957	231.57	1.27
0	114002	231.67	1.27
0	114047	231.77	1.27
0	114092	231.87	1.27
0	114137	231.97	1.27
0	114202	232.07	1.27
0	114248	232.17	1.27
0	114312	232.27	1.27
0	114370	232.37	1.27
0	114424	232.47	1.27
0	114478	232.57	1.27
0	114532	232.67	1.27
0	114586	232.77	1.27
0	114640	232.87	1.27
0	114694	232.97	1.27
0	114745	233.07	1.27
0	114795	233.17	1.27
0	114846	233.27	1.27
0	114903	233.37	1.27
0	114956	233.47	1.27
0	115009	233.57	1.27
0	115062	233.67	1.27
0	115115	233.77	1.27
0	115168	233.87	1.27
0	115220	233.97	1.27
0	115297	234.07	1.27
0	115805	235.37	1.37
0	115845	235.47	1.37
0	115887	235.57	1.37
0	115929	235.67	1.37
0	115971	235.77	1.37
0	116013	235.87	1.37
0	116051	235.97	1.37
0	120840	246.13	11.43
0	120841	246.13	11.33
0	120842	246.13	11.23
0	120843	246.13	11.13
0	120844	246.13	11.03
0	120845	246.13	10.93
0	120846	246.13	10.83
0	120847	246.13	10.73
0	120848	246.13	10.63
0	120849	246.13	10.53
0	120850	246.13	10.43
0	120851	246.13	10.33
0	120852	246.13	10.23
0	120853	246.13	10.13
0	120854	246.13	10.03
0	120855	246.13	9.93
0	120856	246.13	13.23
0	120857	246.13	13.13
0	120858	246.13	13.03
0	120859	246.13	12.93
0	120860	246.13	12.83
0	120861	246.13	12.73
0	120862	246.13	12.63
0	120863	246.13	12.53
0	120864	246.13	12.43
0	120865	246.13	12.33
0	120866	246.13	12.23
0	120867	246.13	9.83
0	120868	246.13	9.73
0	120869	246.13	9.63
0	120870	246.13	9.53
0	120871	246.13	9.43
0	122353	247.26	9.26
0	122354	247.26	10.46
0	122355	247.26	10.36
0	122356	247.26	10.26
0	122357	247.26	10.16
0	122358	247.26	10.06
0	122359	247.26	9.96
0	122360	247.26	9.86
0	122361	247.26	9.76
0	122362	247.26	9.66
0	122363	247.26	9.56
0	122364	247.26	9.46
0	122365	247.26	9.36
0	122366	247.26	9.16
0	122367	247.26	9.06
0	122368	247.26	8.96
0	122369	247.26	8.86
0	122370	247.26	8.76
0	122371	247.26	8.66
0	122372	247.26	8.56
0	122373	247.26	8.46
0	122374	247.26	8.36
0	122375	247.26	8.26
0	122376	247.26	8.16
0	122377	247.26	8.06
0	122378	247.26	7.96
0	122379	247.26	7.86
0	122380	247.26	7.76
0	122381	247.26	7.66
0	122382	247.26	7.56
0	122383	247.26	7.46
0	122384	247.26	7.36
0	122385	247.26	7.26
0	122386	247.26	7.16
0	122387	247.26	7.06
0	122388	247.26	6.96
0	122389	247.26	6.86
0	122390	247.26	6.76
0	122391	247.26	6.66
0	122392	247.26	6.56
0	122393	247.26	6.46
0	122394	247.26	6.36
0	122395	247.26	6.26
0	122396	247.26	6.16
0	122397	247.26	6.06
0	122398	247.26	5.96
0	122399	247.26	5.86
0	122400	247.26	5.76
0	122401	247.26	5.66
0	122402	247.26	5.56
0	122403	247.26	5.46
0	122404	247.26	5.36
0	122405	247.26	5.26
0	122406	247.26	5.16
0	122407	247.26	5.06
0	122408	247.26	4.96
0	122409	247.26	4.86
0	122410	247.26	4.76
0	122411	247.26	4.66
0	122412	247.26	4.56
0	122413	247.26	4.46
0	122414	247.26	4.36
0	122415	247.26	4.26
0	122416	247.26	4.16
0	122417	247.26	4.06
0	122418	247.26	3.96
0	122419	247.26	3.86
0	122420	247.26	3.76
0	122421	247.26	3.66
0	122422	247.26	3.56
0	122423	247.26	3.46
0	122424	247.26	3.36
0	122425	247.26	3.26
0	122426	247.26	3.16
0	122427	247.26	3.06
0	122428	247.26	2.96
0	122429	247.26	2.86
0	122430	247.26	2.76
0	122431	247.26	2.66
0	122432	247.26	2.56
0	122433	247.26	2.46
0	122434	247.26	2.36
0	122435	247.26	2.26
0	122436	247.26	2.16
0	122437	247.26	2.06
0	122438	247.26	1.96
0	122439	247.26	1.86
0	122440	247.26	1.76
0	122441	247.26	1.66
0	122444	247.28	1.58
0	122486	247.38	1.58
0	122614	247.48	1.58
0	122658	247.58	1.58
0	122702	247.68	1.58
0	122746	247.78	1.58
0	122790	247.88	1.58
0	122834	247.98	1.58
0	122913	248.08	1.58
0	122959	248.18	1.58
0	123005	248.28	1.58
0	123051	248.38	1.58
0	123097	248.48	1.58
0	123143	248.58	1.58
0	123189	248.68	1.58
0	123235	248.78	1.58
0	123281	248.88	1.58
0	123323	248.98	1.58
0	123362	249.08	1.58
0	123411	249.18	1.58
0	123456	249.28	1.58
0	123499	249.38	1.58
0	123542	249.48	1.58
0	123585	249.58	1.58
0	123628	249.68	1.58
0	123671	249.78	1.58
0	123714	249.88	1.58
0	123757	249.98	1.58
0	123864	250.08	1.58
0	123908	250.18	1.58
0	123940	250.28	1.58
0	123984	250.38	1.58
0	124074	250.58	1.68
0	124075	250.58	1.58
0	124118	250.68	1.58
0	124161	250.78	1.58
0	124204	250.88	1.58
0	124247	250.98	1.58
0	124293	251.08	1.58
0	124337	251.18	1.58
0	124381	251.28	1.58
0	124425	251.38	1.58
0	124467	251.48	1.58
0	124513	251.58	1.58
0	124557	251.68	1.58
0	124601	251.78	1.58
0	124645	251.88	1.58
0	124686	251.98	1.58
0	124722	252.08	1.58
0	124771	252.18	1.58
0	124816	252.28	1.58
0	124859	252.38	1.58
0	124902	252.48	1.58
0	124945	252.58	1.58
0	124988	252.68	1.58
0	125031	252.78	1.58
0	125074	252.88	1.58
0	125114	252.98	1.58
0	125143	253.08	1.58
0	125169	253.18	1.58
0	125183	253.28	1.58
0	125210	253.38	1.58
0	125266	253.58	1.68
0	125267	253.58	1.58
0	125293	253.68	1.58
0	125319	253.78	1.58
0	125345	253.88	1.58
0	125371	253.98	1.58
0	125398	254.08	1.58
0	125424	254.18	1.58
0	125438	254.28	1.58
0	125445	254.38	1.58
0	129046	261.39	8.49
0	129047	261.39	8.39
0	129048	261.39	8.29
0	129049	261.39	8.19
0	129050	261.39	8.09
0	129051	261.39	7.99
0	129052	261.39	7.89
0	129053	261.39	7.79
0	129054	261.39	7.69
0	129055	261.39	7.59
0	129056	261.39	7.49
0	129057	261.39	7.39
0	129058	261.39	7.29
0	129059	261.39	7.19
0	129060	261.39	7.09
0	129061	261.39	6.99
0	129062	261.39	6.89
0	129063	261.39	6.79
0	129064	261.39	6.69
0	129065	261.39	6.59
0	129066	261.39	6.49
0	129067	261.39	6.39
0	129068	261.39	6.29
0	129069	261.39	6.19
0	129070	261.39	6.09
0	129071	261.39	5.99
0	129072	261.39	5.89
0	129073	261.39	5.79
0	129074	261.39	5.69
0	129075	261.39	5.59
0	129076	261.39	5.49
0	129077	261.39	5.39
0	129078	261.39	5.29
0	129079	261.39	5.19
0	129080	261.39	5.09
0	129081	261.39	4.99
0	129082	261.39	4.89
0	129083	261.39	4.79
0	129084	261.39	4.69
0	129085	261.39	4.59
0	129086	261.39	4.49
0	129087	261.39	4.39
0	129088	261.39	4.29
0	129089	261.39	4.19
0	129090	261.39	4.09
0	129091	261.39	3.99
0	129092	261.39	3.89
0	129093	261.39	3.79
0	129094	261.39	3.69
0	129095	261.39	3.59
0	129096	261.39	3.49
0	129097	261.39	3.39
0	129098	261.39	3.29
0	129099	261.39	3.19
0	129100	261.39	3.09
0	129101	261.39	2.99
0	129102	261.39	2.89
0	129103	261.39	2.79
0	129104	261.39	2.69
0	129105	261.39	2.59
0	129106	261.39	2.49
0	129107	261.39	2.39
0	129108	261.39	2.29
0	129109	261.39	2.19
0	129110	261.39	2.09
0	129111	261.39	1.99
0	129112	261.39	1.89
0	129113	261.39	1.79
0	129114	261.39	1.69
0	129115	261.39	1.59
0	129116	261.39	1.49
0	129117	261.39	1.39
0	129168	261.49	1.39
0	129219	261.59	1.39
0	129270	261.69	1.39
0	129321	261.79	1.39
0	129372	261.89	1.39
0	129423	261.99	1.39
0	129477	262.09	1.39
0	129524	262.19	1.39
0	129569	262.29	1.39
0	129614	262.39	1.39
0	129659	262.49	1.39
0	129704	262.59	1.39
0	129749	262.69	1.39
0	129794	262.79	1.39
0	129839	262.89	1.39
0	129884	262.99	1.39
0	129951	263.09	1.39
0	129997	263.19	1.39
0	130043	263.29	1.39
0	130089	263.39	1.39
0	130135	263.49	1.39
0	130181	263.59	1.39
0	130227	263.69	1.39
0	130273	263.79	1.39
0	130319	263.89	1.39
0	130365	263.99	1.39
0	130423	264.09	1.39
0	130471	264.19	1.39
0	130519	264.29	1.39
0	130567	264.39	1.39
0	130615	264.49	1.39
0	130663	264.59	1.39
0	130711	264.69	1.39
0	130759	264.79	1.39
0	130807	264.89	1.39
0	130855	264.99	1.39
0	130912	265.09	1.39
0	130962	265.19	1.39
0	131012	265.29	1.39
0	131062	265.39	1.39
0	131112	265.49	1.39
0	131162	265.59	1.39
0	131212	265.69	1.39
0	131262	265.79	1.39
0	131312	265.89	1.39
0	131359	265.99	1.39
0	131410	266.09	1.39
0	131466	266.19	1.39
0	131521	266.29	1.39
0	131574	266.39	1.39
0	131627	266.49	1.39
0	131680	266.59	1.39
0	131733	266.69	1.39
0	131786	266.79	1.39
0	131839	266.89	1.39
0	131886	266.99	1.39
0	131930	267.09	1.39
0	131991	267.19	1.39
0	132047	267.29	1.39
0	132099	267.39	1.39
0	132151	267.49	1.39
0	132203	267.59	1.39
0	132255	267.69	1.39
0	132307	267.79	1.39
0	132359	267.89	1.39
0	132403	267.99	1.39
0	137625	273.26	6.56
0	137626	273.26	6.46
0	137627	273.26	6.36
0	137628	273.26	6.26
0	137629	273.26	6.16
0	137630	273.26	6.06
0	137631	273.26	5.96
0	137632	273.26	5.86
0	137633	273.26	5.76
0	137634	273.26	5.66
0	137635	273.26	5.56
0	137636	273.26	5.46
0	137637	273.26	5.36
0	137638	273.26	5.26
0	137639	273.26	5.16
0	137640	273.26	5.06
0	137641	273.26	4.96
0	137642	273.26	4.86
0	137643	273.26	4.76
0	137644	273.26	4.66
0	137645	273.26	4.56
0	137646	273.26	4.46
0	137647	273.26	4.36
0	137648	273.26	4.26
0	137649	273.26	4.16
0	137650	273.26	4.06
0	137651	273.26	3.96
0	137652	273.26	3.86
0	137653	273.26	3.76
0	137654	273.26	3.66
0	137655	273.26	3.56
0	137656	273.26	3.46
0	137657	273.26	3.36
0	137658	273.26	3.26
0	137659	273.26	3.16
0	137660	273.26	3.06
0	137661	273.26	2.96
0	137662	273.26	2.86
0	137663	273.26	2.76
0	137664	273.26	2.66
0	137665	273.26	2.56
0	137666	273.26	2.46
0	137667	273.26	2.36
0	137668	273.26	2.26
0	137669	273.26	2.16
0	137670	273.26	2.06
0	137671	273.26	1.96
0	137672	273.26	1.86
0	137673	273.26	1.76
0	137674	273.26	1.66
0	137675	273.26	1.56
0	144868	282.13	9.23
0	144869	282.13	9.13
0	144870	282.13	10.33
0	144871	282.13	10.23
0	144872	282.13	10.13
0	144873	282.13	10.03
0	144874	282.13	9.93
0	144875	282.13	9.83
0	144876	282.13	9.73
0	144877	282.13	9.63
0	144878	282.13	9.53
0	144879	282.13	9.43
0	144880	282.13	9.33
0	144881	282.13	9.03
0	144882	282.13	8.93
0	144883	282.13	8.83
0	144884	282.13	8.73
0	144885	282.13	8.63
0	144886	282.13	8.53
0	144887	282.13	8.43
0	144888	282.13	8.33
0	144889	282.13	8.23
0	144890	282.13	8.13
0	144891	282.13	8.03
0	144892	282.13	7.93
0	144893	282.13	7.83
0	144894	282.13	7.73
0	144895	282.13	7.63
0	144896	282.13	7.53
0	144897	282.13	7.43
0	144898	282.13	7.33
0	144899	282.13	7.23
0	144900	282.13	7.13
0	144901	282.13	7.03
0	144902	282.13	6.93
0	144903	282.13	6.83
0	144904	282.13	6.73
0	144905	282.13	6.63
0	144906	282.13	6.53
0	144907	282.13	6.43
0	144908	282.13	6.33
0	144909	282.13	6.23
0	144910	282.13	6.13
0	144911	282.13	6.03
0	144912	282.13	5.93
0	144913	282.13	5.83
0	144914	282.13	5.73
0	144915	282.13	5.63
0	144916	282.13	5.53
0	144917	282.13	5.43
0	144918	282.13	5.33
0	144919	282.13	5.23
0	144920	282.13	5.13
0	144921	282.13	5.03
0	144922	282.13	4.93
0	144923	282.13	4.83
0	144924	282.13	4.73
0	144925	282.13	4.63
0	144926	282.13	4.53
0	144927	282.13	4.43
0	144928	282.13	4.33
0	144929	282.13	4.23
0	144930	282.13	4.13
0	144931	282.13	4.03
0	144932	282.13	3.93
0	144933	282.13	3.83
0	144934	282.13	3.73
0	144935	282.13	3.63
0	144936	282.13	3.53
0	144937	282.13	3.43
0	144938	282.13	3.33
0	144939	282.13	3.23
0	144940	282.13	3.13
0	144941	282.13	3.03
0	144942	282.13	2.93
0	144943	282.13	2.83
0	144944	282.13	2.73
0	144945	282.13	2.63
0	144946	282.13	2.53
0	144947	282.13	2.43
0	144948	282.13	2.33
0	144949	282.13	2.23
0	144950	282.13	2.13
0	144951	282.13	2.03
0	144952	282.13	1.93
0	144953	282.13	1.83
0	144954	282.13	1.73
0	144955	282.13	1.63
0	144956	282.13	1.53
0	144957	282.13	1.43
0	146248	282.17	1.37
0	147412	282.27	1.37
0	147467	282.37	1.37
0	147704	282.47	1.37
0	147761	282.57	1.37
0	147818	282.67	1.37
0	147875	282.77	1.37
0	147932	282.87	1.37
0	147986	282.97	1.37
0	148045	283.07	1.37
0	148103	283.17	1.37
0	148159	283.27	1.37
0	148215	283.37	1.37
0	148271	283.47	1.37
0	148327	283.57	1.37
0	148383	283.67	1.37
0	148439	283.77	1.37
0	148495	283.87	1.37
0	148548	283.97	1.37
0	148596	284.07	1.37
0	148655	284.17	1.37
0	148710	284.27	1.37
0	148763	284.37	1.37
0	148816	284.47	1.37
0	148869	284.57	1.37
0	148922	284.67	1.37
0	148975	284.77	1.37
0	149028	284.87	1.37
0	149081	284.97	1.37
0	149139	285.07	1.37
0	149179	285.17	1.37
0	149290	285.37	1.47
0	149291	285.37	1.37
0	149339	285.47	1.37
0	149396	285.57	1.37
0	149452	285.67	1.37
0	149506	285.77	1.37
0	149560	285.87	1.37
0	149614	285.97	1.37
0	149677	286.07	1.37
0	149734	286.17	1.37
0	149789	286.27	1.37
0	149848	286.37	1.37
0	149905	286.47	1.37
0	149962	286.57	1.37
0	150019	286.67	1.37
0	150076	286.77	1.37
0	150133	286.87	1.37
0	150190	286.97	1.37
0	150247	287.07	1.37
0	150303	287.17	1.37
0	150359	287.27	1.37
0	150415	287.37	1.37
0	150471	287.47	1.37
0	150527	287.57	1.37
0	150583	287.67	1.37
0	150639	287.77	1.37
0	150695	287.87	1.37
0	150742	287.97	1.37
0	150782	288.07	1.37
0	150820	288.17	1.37
0	150856	288.27	1.37
0	150892	288.37	1.37
0	150928	288.47	1.37
0	150964	288.57	1.37
0	151000	288.67	1.37
0	151036	288.77	1.37
0	151072	288.87	1.37
0	151108	288.97	1.37
0	151146	289.07	1.37
0	151167	289.17	1.37
0	152005	291.37	3.47
0	152006	291.37	3.37
0	152007	291.37	3.27
0	152008	291.37	3.17
0	152009	291.37	3.07
0	152010	291.37	2.97
0	152011	291.37	2.87
0	152012	291.37	2.77
0	152013	291.37	2.67
0	152014	291.37	2.57
0	152015	291.37	2.47
0	152016	291.37	2.37
0	152017	291.37	2.27
0	152018	291.37	2.17
0	152019	291.37	2.07
0	152020	291.37	1.97
0	152021	291.37	1.87
0	152022	291.37	1.77
0	152023	291.37	1.67
0	152024	291.37	1.57
0	152025	291.37	1.47
0	152026	291.37	1.37
0	152130	291.47	1.37
0	152284	291.57	1.37
0	152377	291.67	1.37
0	152428	291.77	1.37
0	152479	291.87	1.37
0	152527	291.97	1.37
0	152579	292.07	1.37
0	152617	292.17	1.37
0	152653	292.27	1.37
0	152733	292.37	1.37
0	152771	292.47	1.37
0	152809	292.57	1.37
0	152847	292.67	1.37
0	152885	292.77	1.37
0	152923	292.87	1.37
0	152958	292.97	1.37
0	153437	294.27	2.57
0	153438	294.27	2.47
0	153439	294.27	2.37
0	153440	294.27	2.27
0	153441	294.27	2.17
0	153442	294.27	2.07
0	153443	294.27	1.97
0	153444	294.27	1.87
0	153445	294.27	1.77
0	153446	294.27	1.67
0	153447	294.27	1.57
0	153448	294.27	1.47
0	153449	294.27	1.37
0	153487	294.37	1.37
0	153525	294.47	1.37
0	153563	294.57	1.37
0	153601	294.67	1.37
0	153639	294.77	1.37
0	153677	294.87	1.37
0	153712	294.97	1.37
0	156210	304.13	10.43
0	156211	304.13	10.33
0	156212	304.13	10.23
0	156213	304.13	10.13
0	156214	304.13	10.03
0	156215	304.13	9.93
0	156216	304.13	9.83
0	156217	304.13	9.73
0	156218	304.13	9.63
0	156219	304.13	9.53
0	156220	304.13	9.43
0	156221	304.13	9.33
0	156222	304.13	9.23
0	156223	304.13	9.13
0	156224	304.13	9.03
0	156225	304.13	8.93
0	156226	304.13	8.83
0	156227	304.13	8.73
0	156228	304.13	8.63
0	156229	304.13	8.53
0	156230	304.13	8.43
0	156231	304.13	8.33
0	156232	304.13	8.23
0	156233	304.13	8.13
0	156234	304.13	8.03
0	156235	304.13	7.93
0	156236	304.13	7.83
0	156237	304.13	7.73
0	156238	304.13	7.63
0	156239	304.13	7.53
0	156240	304.13	7.43
0	156241	304.13	7.33
0	156242	304.13	7.23
0	156243	304.13	7.13
0	156244	304.13	7.03
0	156245	304.13	6.93
0	156246	304.13	6.83
0	156247	304.13	6.73
0	156248	304.13	6.63
0	156249	304.13	6.53
0	156250	304.13	6.43
0	156251	304.13	6.33
0	156649	304.27	6.37
0	156650	304.27	6.27
0	156651	304.27	6.17
0	156652	304.27	6.07
0	156653	304.27	5.97
0	156654	304.27	5.87
0	156655	304.27	5.77
0	156656	304.27	5.67
0	156657	304.27	5.57
0	156658	304.27	5.47
0	156659	304.27	5.37
0	156660	304.27	5.27
0	156661	304.27	5.17
0	156662	304.27	5.07
0	156663	304.27	4.97
0	156664	304.27	4.87
0	156665	304.27	4.77
0	156666	304.27	4.67
0	156667	304.27	4.57
0	156668	304.27	4.47
0	156669	304.27	4.37
0	156670	304.27	4.27
0	156671	304.27	4.17
0	156672	304.27	4.07
0	156673	304.27	3.97
0	156674	304.27	3.87
0	156675	304.27	3.77
0	156676	304.27	3.67
0	156677	304.27	3.57
0	156678	304.27	3.47
0	156679	304.27	3.37
0	156680	304.27	3.27
0	156681	304.27	3.17
0	156682	304.27	3.07
0	156683	304.27	2.97
0	156684	304.27	2.87
0	156685	304.27	2.77
0	156686	304.27	2.67
0	156687	304.27	2.57
0	156688	304.27	2.47
0	156689	304.27	2.37
0	156690	304.27	2.27
0	156691	304.27	2.17
0	156692	304.27	2.07
0	156693	304.27	1.97
0	156694	304.27	1.87
0	156695	304.27	1.77
0	156696	304.27	1.67
0	156697	304.27	1.57
0	156698	304.27	1.47
0	156699	304.27	1.37
0	156700	304.27	1.27
0	156731	304.37	1.27
0	156762	304.47	1.27
0	156793	304.57	1.27
0	156824	304.67	1.27
0	156855	304.77	1.27
0	156886	304.87	1.27
0	156914	304.97	1.27
0	157132	305.07	1.27
0	157167	305.17	1.27
0	157200	305.27	1.27
0	157233	305.37	1.27
0	157266	305.47	1.27
0	157299	305.57	1.27
0	157332	305.67	1.27
0	157365	305.77	1.27
0	157398	305.87	1.27
0	157431	305.97	1.27
0	157894	306.07	1.27
0	158526	306.17	1.27
0	158576	306.27	1.27
0	158932	306.37	1.27
0	159110	306.47	1.27
0	159168	306.57	1.27
0	159226	306.67	1.27
0	159284	306.77	1.27
0	159342	306.87	1.27
0	159400	306.97	1.27
0	159463	307.07	1.27
0	159524	307.17	1.27
0	159585	307.27	1.27
0	159646	307.37	1.27
0	159707	307.47	1.27
0	159768	307.57	1.27
0	159829	307.67	1.27
0	159890	307.77	1.27
0	159951	307.87	1.27
0	160012	307.97	1.27
0	160900	308.07	1.27
0	161628	308.17	1.27
0	161695	308.27	1.27
0	161762	308.37	1.27
0	161829	308.47	1.27
0	161896	308.57	1.27
0	161963	308.67	1.27
0	162030	308.77	1.27
0	162097	308.87	1.27
0	162161	308.97	1.27
0	162578	309.07	1.27
0	162644	309.17	1.27
0	162710	309.27	1.27
0	162776	309.37	1.27
0	162842	309.47	1.27
0	162908	309.57	1.27
0	162974	309.67	1.27
0	163040	309.77	1.27
0	163106	309.87	1.27
0	163168	309.97	1.27
0	163263	310.07	1.27
0	163318	310.17	1.27
0	163366	310.27	1.27
0	163412	310.37	1.27
0	163458	310.47	1.27
0	163504	310.57	1.27
0	163550	310.67	1.27
0	163596	310.77	1.27
0	163642	310.87	1.27
0	163688	310.97	1.27
0	164130	311.07	1.27
0	164180	311.17	1.27
0	164229	311.27	1.27
0	164278	311.37	1.27
0	164327	311.47	1.27
0	164376	311.57	1.27
0	164425	311.67	1.27
0	164474	311.77	1.27
0	164523	311.87	1.27
0	164572	311.97	1.27
0	164690	312.07	1.27
0	164799	312.17	1.27
0	164855	312.27	1.27
0	164911	312.37	1.27
0	164967	312.47	1.27
0	165023	312.57	1.27
0	165079	312.67	1.27
0	165135	312.77	1.27
0	165191	312.87	1.27
0	165247	312.97	1.27
0	165309	313.07	1.27
0	165367	313.17	1.27
0	165425	313.27	1.27
0	165483	313.37	1.27
0	165541	313.47	1.27
0	165599	313.57	1.27
0	165657	313.67	1.27
0	165715	313.77	1.27
0	165773	313.87	1.27
0	165828	313.97	1.27
0	165876	314.07	1.27
0	165939	314.17	1.27
0	165998	314.27	1.27
0	166055	314.37	1.27
0	166112	314.47	1.27
0	166169	314.57	1.27
0	166226	314.67	1.27
0	166283	314.77	1.27
0	166340	314.87	1.27
0	166394	314.97	1.27
0	166544	315.27	1.47
0	166545	315.27	1.37
0	166546	315.27	1.27
0	166596	315.37	1.27
0	166660	315.47	1.27
0	166720	315.57	1.27
0	166776	315.67	1.27
0	166832	315.77	1.27
0	166888	315.87	1.27
0	166941	315.97	1.27
0	166980	316.07	1.27
0	167004	316.17	1.27
0	167024	316.27	1.27
0	167044	316.37	1.27
0	167064	316.47	1.27
0	167084	316.57	1.27
0	167104	316.67	1.27
0	167124	316.77	1.27
0	167144	316.87	1.27
0	167163	316.97	1.27
0	167177	317.07	1.27
0	168802	322.37	6.47
0	168803	322.37	6.37
0	168804	322.37	6.27
0	168805	322.37	6.17
0	168806	322.37	6.07
0	168807	322.37	5.97
0	168808	322.37	5.87
0	168809	322.37	5.77
0	168810	322.37	5.67
0	168811	322.37	5.57
0	168812	322.37	5.47
0	168813	322.37	5.37
0	168814	322.37	5.27
0	168815	322.37	5.17
0	168816	322.37	5.07
0	168817	322.37	4.97
0	168818	322.37	4.87
0	168819	322.37	4.77
0	168820	322.37	4.67
0	168821	322.37	4.57
0	168822	322.37	4.47
0	168823	322.37	4.37
0	168824	322.37	4.27
0	168825	322.37	4.17
0	168826	322.37	4.07
0	168827	322.37	3.97
0	168828	322.37	3.87
0	168829	322.37	3.77
0	168830	322.37	3.67
0	168831	322.37	3.57
0	168832	322.37	3.47
0	168833	322.37	3.37
0	168834	322.37	3.27
0	168835	322.37	3.17
0	168836	322.37	3.07
0	168837	322.37	2.97
0	168838	322.37	2.87
0	168839	322.37	2.77
0	168840	322.37	2.67
0	168841	322.37	2.57
0	168842	322.37	2.47
0	168843	322.37	2.37
0	168844	322.37	2.27
0	168845	322.37	2.17
0	168846	322.37	2.07
0	168847	322.37	1.97
0	168848	322.37	1.87
0	168849	322.37	1.77
0	168850	322.37	1.67
0	168851	322.37	1.57
0	168852	322.37	1.47
0	168853	322.37	1.37
0	169042	322.47	1.37
0	169182	322.57	1.37
0	169220	322.67	1.37
0	169258	322.77	1.37
0	169296	322.87	1.37
0	169334	322.97	1.37
0	169442	323.07	1.37
0	169546	323.17	1.37
0	169854	323.27	1.37
0	169907	323.37	1.37
0	170222	323.47	1.37
0	170386	323.57	1.37
0	170448	323.67	1.37
0	170510	323.77	1.37
0	170572	323.87	1.37
0	170631	323.97	1.37
0	170696	324.07	1.37
0	170747	324.17	1.37
0	170858	324.27	1.37
0	170908	324.37	1.37
0	170958	324.47	1.37
0	171008	324.57	1.37
0	171058	324.67	1.37
0	171108	324.77	1.37
0	171155	324.87	1.37
0	171202	324.97	1.37
0	171247	325.07	1.37
0	171290	325.17	1.37
0	171338	325.27	1.37
0	171384	325.37	1.37
0	171430	325.47	1.37
0	171476	325.57	1.37
0	171522	325.67	1.37
0	171568	325.77	1.37
0	171614	325.87	1.37
0	171657	325.97	1.37
0	171768	326.07	1.37
0	171823	326.17	1.37
0	171870	326.27	1.37
0	171917	326.37	1.37
0	171964	326.47	1.37
0	172011	326.57	1.37
0	172058	326.67	1.37
0	172105	326.77	1.37
0	172152	326.87	1.37
0	172199	326.97	1.37
0	172246	327.07	1.37
0	172335	327.17	1.37
0	172384	327.27	1.37
0	172438	327.37	1.37
0	172487	327.47	1.37
0	172536	327.57	1.37
0	172585	327.67	1.37
0	172634	327.77	1.37
0	172683	327.87	1.37
0	172729	327.97	1.37
0	172824	328.17	1.47
0	172825	328.17	1.37
0	172874	328.27	1.37
0	172924	328.37	1.37
0	172972	328.47	1.37
0	173020	328.57	1.37
0	173068	328.67	1.37
0	173116	328.77	1.37
0	173164	328.87	1.37
0	173211	328.97	1.37
0	173295	329.07	1.37
0	173343	329.17	1.37
0	173391	329.27	1.37
0	173439	329.37	1.37
0	173487	329.47	1.37
0	173535	329.57	1.37
0	173583	329.67	1.37
0	173631	329.77	1.37
0	173679	329.87	1.37
0	173724	329.97	1.37
0	173763	330.07	1.37
0	173830	330.17	1.37
0	173872	330.27	1.37
0	173912	330.37	1.37
0	173952	330.47	1.37
0	173992	330.57	1.37
0	174032	330.67	1.37
0	174072	330.77	1.37
0	174112	330.87	1.37
0	174149	330.97	1.37
0	174184	331.07	1.37
0	174206	331.17	1.37
0	174277	331.37	1.47
0	174278	331.37	1.37
0	174310	331.47	1.37
0	174342	331.57	1.37
0	174374	331.67	1.37
0	174406	331.77	1.37
0	174438	331.87	1.37
0	174467	331.97	1.37
0	175094	334.13	3.43
0	175095	334.13	3.33
0	175096	334.13	3.23
0	175097	334.13	3.13
0	175098	334.13	3.03
0	175099	334.13	2.93
0	175100	334.13	2.83
0	175101	334.13	2.73
0	175102	334.13	2.63
0	175103	334.13	2.53
0	175104	334.13	2.43
0	175105	334.13	2.33
0	175106	334.13	2.23
0	175107	334.13	2.13
0	175108	334.13	2.03
0	175109	334.13	1.93
0	175110	334.13	1.83
0	175111	334.13	1.73
0	175112	334.13	1.63
0	175113	334.13	1.53
0	175114	334.13	1.43
0	175129	334.17	1.37
0	175148	334.27	1.37
0	175167	334.37	1.37
0	175186	334.47	1.37
0	175205	334.57	1.37
0	175224	334.67	1.37
0	175243	334.77	1.37
0	175262	334.87	1.37
0	175281	334.97	1.37
0	175293	335.07	1.37
0	176538	338.51	4.71
0	176539	338.51	4.61
0	176540	338.51	4.51
0	176541	338.51	4.41
0	176542	338.51	4.31
0	176543	338.51	4.21
0	176544	338.51	4.11
0	176545	338.51	4.01
0	176546	338.51	3.91
0	176547	338.51	3.81
0	176548	338.51	3.71
0	176549	338.51	3.61
0	176550	338.51	3.51
0	176551	338.51	3.41
0	176552	338.51	3.31
0	176553	338.51	3.21
0	176554	338.51	3.11
0	176555	338.51	3.01
0	176556	338.51	2.91
0	176557	338.51	2.81
0	176558	338.51	2.71
0	176559	338.51	2.61
0	176560	338.51	2.51
0	176561	338.51	2.41
0	176562	338.51	2.31
0	176563	338.51	2.21
0	176564	338.51	2.11
0	176565	338.51	2.01
0	176566	338.51	1.91
0	176567	338.51	1.81
0	176568	338.51	1.71
0	176569	338.51	1.61
0	176570	338.51	1.51
0	176610	338.61	1.51
0	176650	338.71	1.51
0	176690	338.81	1.51
0	176730	338.91	1.51
0	176775	339.01	1.51
0	176817	339.11	1.51
0	176859	339.21	1.51
0	176901	339.31	1.51
0	177009	339.41	1.51
0	177219	339.51	1.51
0	177269	339.61	1.51
0	177319	339.71	1.51
0	177369	339.81	1.51
0	177419	339.91	1.51
0	177475	340.01	1.51
0	177529	340.11	1.51
0	177583	340.21	1.51
0	177637	340.31	1.51
0	177691	340.41	1.51
0	177745	340.51	1.51
0	177799	340.61	1.51
0	177919	340.71	1.51
0	177975	340.81	1.51
0	178030	340.91	1.51
0	178085	341.01	1.51
0	178130	341.11	1.51
0	178245	341.31	1.61
0	178246	341.31	1.51
0	178300	341.41	1.51
0	178354	341.51	1.51
0	178408	341.61	1.51
0	178462	341.71	1.51
0	178516	341.81	1.51
0	178569	341.91	1.51
0	178989	342.01	1.51
0	179051	342.11	1.51
0	179344	342.21	1.51
0	179376	342.27	1.37
0	179408	342.31	1.51
0	179440	342.37	1.37
0	179494	342.47	1.37
0	179546	342.57	1.37
0	179598	342.67	1.37
0	179650	342.77	1.37
0	179702	342.87	1.37
0	179751	342.97	1.37
0	179855	343.17	1.47
0	179856	343.17	1.37
0	179910	343.27	1.37
0	179961	343.37	1.37
0	180005	343.47	1.37
0	180047	343.57	1.37
0	180089	343.67	1.37
0	180131	343.77	1.37
0	180173	343.87	1.37
0	180215	343.97	1.37
0	180257	344.07	1.37
0	180299	344.17	1.37
0	180341	344.27	1.37
0	180383	344.37	1.37
0	180425	344.47	1.37
0	180465	344.57	1.37
0	180505	344.67	1.37
0	180545	344.77	1.37
0	180585	344.87	1.37
0	180622	344.97	1.37
0	187652	363.13	19.43
0	187653	363.13	19.33
0	187654	363.13	19.23
0	187655	363.13	19.13
0	187656	363.13	19.03
0	187657	363.13	18.93
0	187658	363.13	18.83
0	187659	363.13	18.73
0	187660	363.13	18.63
0	187661	363.13	18.53
0	187662	363.13	18.43
0	187663	363.13	18.33
0	187664	363.13	18.23
0	187665	363.13	18.13
0	187666	363.13	18.03
0	187667	363.13	17.93
0	187668	363.13	17.83
0	187669	363.13	17.73
0	187670	363.13	17.63
0	187671	363.13	17.53
0	187672	363.13	17.43
0	187673	363.13	17.33
0	187674	363.13	17.23
0	187675	363.13	17.13
0	187676	363.13	17.03
0	187677	363.13	16.93
0	187678	363.13	16.83
0	187679	363.13	16.73
0	187680	363.13	16.63
0	187681	363.13	16.53
0	187682	363.13	16.43
0	187683	363.13	16.33
0	187684	363.13	16.23
0	187685	363.13	16.13
0	187686	363.13	16.03
0	187687	363.13	15.93
0	187688	363.13	15.83
0	187689	363.13	15.73
0	187690	363.13	15.63
0	187691	363.13	15.53
0	187692	363.13	15.43
0	187693	363.13	15.33
0	187694	363.13	15.23
0	187695	363.13	15.13
0	187696	363.13	15.03
0	187697	363.13	14.93
0	187698	363.13	14.83
0	187699	363.13	14.73
0	187700	363.13	14.63
0	187701	363.13	14.53
0	187702	363.13	14.43
0	187703	363.13	14.33
0	187704	363.13	14.23
0	187705	363.13	14.13
0	187706	363.13	14.03
0	187707	363.13	13.93
0	187708	363.13	13.83
0	187709	363.13	13.73
0	187710	363.13	13.63
0	187711	363.13	13.53
0	187712	363.13	13.43
0	187713	363.13	13.33
0	187714	363.13	13.23
0	187715	363.13	13.13
0	187716	363.13	13.03
0	187717	363.13	12.93
0	187718	363.13	12.83
0	187719	363.13	12.73
0	187720	363.13	12.63
0	187721	363.13	12.53
0	187722	363.13	12.43
0	187723	363.13	12.33
0	187724	363.13	12.23
0	187725	363.13	12.13
0	187726	363.13	12.03
0	187727	363.13	11.93
0	187728	363.13	11.83
0	187729	363.13	11.73
0	187730	363.13	11.63
0	187731	363.13	11.53
0	187732	363.13	11.43
0	187733	363.13	11.33
0	187734	363.13	11.23
0	187735	363.13	11.13
0	187736	363.13	11.03
0	187737	363.13	10.93
0	187738	363.13	10.83
0	187739	363.13	10.73
0	187740	363.13	10.63
0	187741	363.13	10.53
0	187742	363.13	10.43
0	187743	363.13	10.33
0	187744	363.13	10.23
0	187745	363.13	10.13
0	187746	363.13	10.03
0	187747	363.13	9.93
0	187748	363.13	9.83
0	187749	363.13	9.73
0	187750	363.13	9.63
0	187751	363.13	9.53
0	187752	363.13	9.43
0	187753	363.13	9.33
0	187754	363.13	9.23
0	187755	363.13	9.13
0	187756	363.13	9.03
0	187757	363.13	8.93
0	187758	363.13	8.83
0	187759	363.13	8.73
0	187760	363.13	8.63
0	187761	363.13	8.53
0	187762	363.13	8.43
0	187763	363.13	8.33
0	187764	363.13	8.23
0	187765	363.13	8.13
0	187766	363.13	8.03
0	187767	363.13	7.93
0	187768	363.13	7.83
0	187769	363.13	7.73
0	187770	363.13	7.63
0	187771	363.13	7.53
0	187772	363.13	7.43
0	187773	363.13	7.33
0	188725	364.37	8.47
0	188726	364.37	8.37
0	188727	364.37	8.27
0	188728	364.37	8.17
0	188729	364.37	8.07
0	188730	364.37	7.97
0	188731	364.37	7.87
0	188732	364.37	7.77
0	188733	364.37	7.67
0	188734	364.37	7.57
0	188735	364.37	7.47
0	188736	364.37	7.37
0	188737	364.37	7.27
0	188738	364.37	7.17
0	188739	364.37	7.07
0	188740	364.37	6.97
0	188741	364.37	6.87
0	188742	364.37	6.77
0	188743	364.37	6.67
0	188744	364.37	6.57
0	188745	364.37	6.47
0	188746	364.37	6.37
0	188747	364.37	6.27
0	188748	364.37	6.17
0	188749	364.37	6.07
0	188750	364.37	5.97
0	188751	364.37	5.87
0	188752	364.37	5.77
0	188753	364.37	5.67
0	188754	364.37	5.57
0	188755	364.37	5.47
0	188756	364.37	5.37
0	188757	364.37	5.27
0	188758	364.37	5.17
0	188759	364.37	5.07
0	188760	364.37	4.97
0	188761	364.37	4.87
0	188762	364.37	4.77
0	188763	364.37	4.67
0	188764	364.37	4.57
0	188765	364.37	4.47
0	188766	364.37	4.37
0	188767	364.37	4.27
0	188768	364.37	4.17
0	188769	364.37	4.07
0	188770	364.37	3.97
0	188771	364.37	3.87
0	188772	364.37	3.77
0	188773	364.37	3.67
0	188774	364.37	3.57
0	188775	364.37	3.47
0	188776	364.37	3.37
0	188777	364.37	3.27
0	188778	364.37	3.17
0	188779	364.37	3.07
0	188780	364.37	2.97
0	188781	364.37	2.87
0	188782	364.37	2.77
0	188783	364.37	2.67
0	188784	364.37	2.57
0	188785	364.37	2.47
0	188786	364.37	2.37
0	188787	364.37	2.27
0	188788	364.37	2.17
0	188789	364.37	2.07
0	188790	364.37	1.97
0	188791	364.37	1.87
0	188792	364.37	1.77
0	188793	364.37	1.67
0	188794	364.37	1.57
0	188795	364.37	1.47
0	188796	364.37	1.37
0	188831	364.47	1.37
0	188866	364.57	1.37
0	188901	364.67	1.37
0	188936	364.77	1.37
0	188971	364.87	1.37
0	189006	364.97	1.37
0	189284	365.07	1.37
0	189322	365.17	1.37
0	189360	365.27	1.37
0	189398	365.37	1.37
0	189436	365.47	1.37
0	189474	365.57	1.37
0	189512	365.67	1.37
0	189550	365.77	1.37
0	189588	365.87	1.37
0	189626	365.97	1.37
0	189668	366.07	1.37
0	189866	366.17	1.37
0	189906	366.27	1.37
0	189946	366.37	1.37
0	189986	366.47	1.37
0	190026	366.57	1.37
0	190066	366.67	1.37
0	190106	366.77	1.37
0	190146	366.87	1.37
0	190185	366.97	1.37
0	190228	367.07	1.37
0	190270	367.17	1.37
0	190311	367.27	1.37
0	190352	367.37	1.37
0	190393	367.47	1.37
0	190434	367.57	1.37
0	190475	367.67	1.37
0	190516	367.77	1.37
0	190557	367.87	1.37
0	190596	367.97	1.37
0	190638	368.07	1.37
0	190679	368.17	1.37
0	190721	368.27	1.37
0	190762	368.37	1.37
0	190803	368.47	1.37
0	190844	368.57	1.37
0	190885	368.67	1.37
0	190926	368.77	1.37
0	190967	368.87	1.37
0	191008	368.97	1.37
0	191051	369.07	1.37
0	191092	369.17	1.37
0	191133	369.27	1.37
0	191174	369.37	1.37
0	191215	369.47	1.37
0	191256	369.57	1.37
0	191297	369.67	1.37
0	191338	369.77	1.37
0	191379	369.87	1.37
0	191420	369.97	1.37
0	192223	370.07	1.37
0	193523	370.17	1.37
0	194078	370.27	1.37
0	194135	370.37	1.37
0	194192	370.47	1.37
0	194249	370.57	1.37
0	194306	370.67	1.37
0	194363	370.77	1.37
0	194420	370.87	1.37
0	194471	370.97	1.37
0	197872	378.13	8.43
0	197873	378.13	8.33
0	197874	378.13	8.23
0	197875	378.13	8.13
0	197876	378.13	8.03
0	197877	378.13	7.93
0	197878	378.13	7.83
0	197879	378.13	7.73
0	197880	378.13	7.63
0	197881	378.13	7.53
0	197882	378.13	7.43
0	197883	378.13	7.33
0	197884	378.13	7.23
0	197885	378.13	7.13
0	197886	378.13	7.03
0	197887	378.13	6.93
0	197888	378.13	6.83
0	197889	378.13	6.73
0	197890	378.13	6.63
0	197891	378.13	6.53
0	197892	378.13	6.43
0	197893	378.13	6.33
0	197894	378.13	6.23
0	197895	378.13	6.13
0	197896	378.13	6.03
0	197897	378.13	5.93
0	197898	378.13	5.83
0	197899	378.13	5.73
0	197900	378.13	5.63
0	197901	378.13	5.53
0	197902	378.13	5.43
0	197903	378.13	4.23
0	197904	378.13	4.13
0	197905	378.13	4.03
0	197906	378.13	3.93
0	197907	378.13	3.83
0	197908	378.13	3.73
0	197909	378.13	3.63
0	197910	378.13	3.53
0	197911	378.13	3.43
0	197912	378.13	3.33
0	197913	378.13	3.23
0	197914	378.13	3.13
0	197915	378.13	3.03
0	197916	378.13	5.33
0	197917	378.13	5.23
0	197918	378.13	5.13
0	197919	378.13	5.03
0	197920	378.13	4.93
0	197921	378.13	4.83
0	197922	378.13	4.73
0	197923	378.13	4.63
0	197924	378.13	4.53
0	197925	378.13	4.43
0	197926	378.13	4.33
0	197927	378.13	2.93
0	197928	378.13	2.83
0	197929	378.13	2.73
0	197930	378.13	2.63
0	197931	378.13	2.53
0	197932	378.13	2.43
0	197933	378.13	2.33
0	197934	378.13	2.23
0	197935	378.13	2.13
0	197936	378.13	2.03
0	197937	378.13	1.93
0	197938	378.13	1.83
0	197939	378.13	1.73
0	197940	378.13	1.63
0	197941	378.13	1.53
0	197942	378.13	1.43
0	197943	378.13	1.33
0	198189	378.17	1.27
0	198604	378.27	1.27
0	198664	378.37	1.27
0	198870	378.47	1.27
0	198932	378.57	1.27
0	198994	378.67	1.27
0	199056	378.77	1.27
0	199118	378.87	1.27
0	199180	378.97	1.27
0	199248	379.07	1.27
0	199312	379.17	1.27
0	199376	379.27	1.27
0	199440	379.37	1.27
0	199504	379.47	1.27
0	199568	379.57	1.27
0	199632	379.67	1.27
0	199696	379.77	1.27
0	199760	379.87	1.27
0	199824	379.97	1.27
0	199889	380.07	1.27
0	199941	380.17	1.27
0	199991	380.27	1.27
0	200041	380.37	1.27
0	200091	380.47	1.27
0	200141	380.57	1.27
0	200191	380.67	1.27
0	200241	380.77	1.27
0	200291	380.87	1.27
0	200341	380.97	1.27
0	200392	381.07	1.27
0	200442	381.17	1.27
0	200492	381.27	1.27
0	200542	381.37	1.27
0	200592	381.47	1.27
0	200642	381.57	1.27
0	200692	381.67	1.27
0	200742	381.77	1.27
0	200792	381.87	1.27
0	200839	381.97	1.27
0	200973	382.07	1.27
0	201012	382.17	1.27
0	201051	382.27	1.27
0	201090	382.37	1.27
0	201129	382.47	1.27
0	201168	382.57	1.27
0	201207	382.67	1.27
0	201246	382.77	1.27
0	201285	382.87	1.27
0	201324	382.97	1.27
0	201346	383.07	1.27
0	208045	397.38	5.38
0	208046	397.38	5.28
0	208047	397.38	15.48
0	208048	397.38	15.38
0	208049	397.38	15.28
0	208050	397.38	15.18
0	208051	397.38	15.08
0	208052	397.38	14.98
0	208053	397.38	14.88
0	208054	397.38	14.78
0	208055	397.38	14.68
0	208056	397.38	14.58
0	208057	397.38	14.48
0	208058	397.38	14.38
0	208059	397.38	14.28
0	208060	397.38	14.18
0	208061	397.38	14.08
0	208062	397.38	13.98
0	208063	397.38	13.88
0	208064	397.38	13.78
[...]
0	491172	919.13	21.03
0	491173	919.13	20.93
0	491174	919.13	20.83
0	491175	919.13	20.73
0	491176	919.13	20.63
0	491177	919.13	20.53
0	491178	919.13	20.43
0	491179	919.13	20.33
0	491180	919.13	20.23
0	491181	919.13	20.13
0	491182	919.13	20.03
0	491183	919.13	19.93
0	491184	919.13	19.83
0	491185	919.13	19.73
0	491186	919.13	19.63
0	491187	919.13	19.53
0	491188	919.13	19.43
0	491189	919.13	19.33
0	491190	919.13	19.23
0	491191	919.13	19.13
0	491192	919.13	19.03
0	491193	919.13	18.93
0	491194	919.13	18.83
0	491195	919.13	18.73
0	491196	919.13	18.63
0	491197	919.13	18.53
0	491198	919.13	18.43
0	491199	919.13	18.33
0	491200	919.13	18.23
0	491201	919.13	18.13
0	491202	919.13	18.03
0	491203	919.13	17.93
0	491204	919.13	17.83
0	491205	919.13	17.73
0	491206	919.13	17.63
0	491207	919.13	17.53
0	491208	919.13	17.43
0	491209	919.13	17.33
0	491210	919.13	17.23
0	491211	919.13	17.13
0	491212	919.13	17.03
0	491213	919.13	16.93
0	491214	919.13	16.83
0	491215	919.13	16.73
0	491216	919.13	16.63
0	491217	919.13	16.53
0	491218	919.13	16.43
0	491219	919.13	16.33
0	491220	919.13	16.23
0	491221	919.13	16.13
0	491222	919.13	16.03
0	491223	919.13	15.93
0	491224	919.13	15.83
0	491225	919.13	15.73
0	491226	919.13	15.63
0	491227	919.13	15.53
0	491228	919.13	15.43
0	491229	919.13	15.33
0	491230	919.13	15.23
0	491231	919.13	15.13
0	491232	919.13	15.03
0	491233	919.13	14.93
0	491234	919.13	14.83
0	491235	919.13	14.73
0	491236	919.13	14.63
0	491237	919.13	14.53
0	491238	919.13	14.43
0	491239	919.13	14.33
0	491240	919.13	14.23
0	491241	919.13	14.13
0	491242	919.13	14.03
0	491243	919.13	13.93
0	491244	919.13	13.83
0	491245	919.13	13.73
0	491246	919.13	13.63
0	491247	919.13	13.53
0	491248	919.13	13.43
0	491249	919.13	13.33
0	491250	919.13	13.23
0	491251	919.13	13.13
0	491252	919.13	13.03
0	491253	919.13	12.93
0	491254	919.13	12.83
0	491255	919.13	12.73
0	491256	919.13	12.63
0	491257	919.13	12.53
0	491258	919.13	12.43
0	491259	919.13	12.33
0	491260	919.13	12.23
0	491261	919.13	12.13
0	491262	919.13	12.03
0	491263	919.13	11.93
0	491264	919.13	11.83
0	491265	919.13	11.73
0	491266	919.13	11.63
0	491267	919.13	11.53
0	491268	919.13	11.43
0	491269	919.13	11.33
0	491270	919.13	11.23
0	491271	919.13	11.13
0	491272	919.13	11.03
0	491273	919.13	10.93
0	491274	919.13	10.83
0	491275	919.13	10.73
0	491276	919.13	10.63
0	491277	919.13	10.53
0	491278	919.13	10.43
0	491279	919.13	10.33
0	491280	919.13	10.23
0	491281	919.13	10.13
0	491282	919.13	10.03
0	491283	919.13	9.93
0	491284	919.13	9.83
0	491285	919.13	9.73
0	491286	919.13	9.63
0	491287	919.13	9.53
0	491288	919.13	9.43
0	491289	919.13	9.33
0	491290	919.13	9.23
0	491291	919.13	9.13
0	491292	919.13	9.03
0	491293	919.13	8.93
0	491294	919.13	8.83
0	491295	919.13	8.73
0	491296	919.13	8.63
0	491297	919.13	8.53
0	491298	919.13	8.43
0	491299	919.13	8.33
0	491300	919.13	8.23
0	491301	919.13	8.13
0	491302	919.13	8.03
0	491303	919.13	7.93
0	491304	919.13	7.83
0	491305	919.13	7.73
0	491306	919.13	7.63
0	491307	919.13	7.53
0	491308	919.13	7.43
0	491309	919.13	7.33
0	491310	919.13	7.23
0	491311	919.13	7.13
0	491312	919.13	7.03
0	491313	919.13	6.93
0	491314	919.13	6.83
0	491315	919.13	6.73
0	491316	919.13	6.63
0	491317	919.13	6.53
0	491318	919.13	6.43
0	491319	919.13	6.33
0	491320	919.13	6.23
0	491321	919.13	6.13
0	491322	919.13	6.03
0	491323	919.13	5.93
0	491324	919.13	5.83
0	491325	919.13	5.73
0	491326	919.13	5.63
0	491327	919.13	5.53
0	491328	919.13	5.43
0	491329	919.13	5.33
0	491330	919.13	5.23
0	491331	919.13	5.13
0	491332	919.13	5.03
0	491333	919.13	4.93
0	491334	919.13	4.83
0	491335	919.13	4.73
0	491336	919.13	4.63
0	491337	919.13	4.53
0	491338	919.13	4.43
0	491339	919.13	4.33
0	491340	919.13	4.23
0	491341	919.13	4.13
0	491342	919.13	4.03
0	491343	919.13	3.93
0	491344	919.13	3.83
0	491345	919.13	3.73
0	491346	919.13	3.63
0	491347	919.13	3.53
0	491348	919.13	3.43
0	491349	919.13	3.33
0	491350	919.13	3.23
0	491351	919.13	3.13
0	491352	919.13	3.03
0	491353	919.13	2.93
0	491354	919.13	2.83
0	491355	919.13	2.73
0	491356	919.13	2.63
0	491357	919.13	2.53
0	491358	919.13	2.43
0	491359	919.13	2.33
0	491360	919.13	2.23
0	491361	919.13	2.13
0	491362	919.13	2.03
0	491363	919.13	1.93
0	491364	919.13	1.83
0	491365	919.13	1.73
0	491366	919.13	1.63
0	491367	919.13	1.53
0	491368	919.13	1.43
0	495138	920.27	2.47
0	495139	920.27	2.37
0	495140	920.27	2.27
0	495141	920.27	2.17
0	495142	920.27	2.07
0	495143	920.27	1.97
0	495144	920.27	1.87
0	495145	920.27	1.77
0	495146	920.27	1.67
0	495147	920.27	1.57
0	495148	920.27	1.47
0	495149	920.27	1.37
0	495175	920.37	1.37
0	496547	920.47	1.37
0	496573	920.57	1.37
0	496599	920.67	1.37
0	496625	920.77	1.37
0	496651	920.87	1.37
0	496677	920.97	1.37
0	496708	921.07	1.37
0	496735	921.17	1.37
0	496786	921.27	1.37
0	496815	921.37	1.37
0	496844	921.47	1.37
0	497411	921.57	1.37
0	497440	921.67	1.37
0	497469	921.77	1.37
0	497498	921.87	1.37
0	497521	921.97	1.37
0	497543	922.07	1.37
0	497562	922.17	1.37
0	497581	922.27	1.37
0	497600	922.37	1.37
0	497619	922.47	1.37
0	497638	922.57	1.37
0	497657	922.67	1.37
0	497676	922.77	1.37
0	497695	922.87	1.37
0	497714	922.97	1.37
0	497722	923.07	1.37
0	505812	946.25	24.45
0	505813	946.25	24.35
0	505814	946.25	24.25
0	505815	946.25	24.15
0	505816	946.25	24.05
0	505817	946.25	23.95
0	505818	946.25	23.85
0	505819	946.25	23.75
0	505820	946.25	23.65
0	505821	946.25	23.55
0	505822	946.25	23.45
0	505823	946.25	23.35
0	505824	946.25	23.25
0	505825	946.25	23.15
0	505826	946.25	23.05
0	505827	946.25	22.95
0	505828	946.25	22.85
0	505829	946.25	22.75
0	505830	946.25	22.65
0	505831	946.25	22.55
0	505832	946.25	22.45
0	505833	946.25	22.35
0	505834	946.25	22.25
0	505835	946.25	22.15
0	505836	946.25	22.05
0	505837	946.25	21.95
0	505838	946.25	21.85
0	505839	946.25	21.75
0	505840	946.25	21.65
0	505841	946.25	21.55
0	505842	946.25	21.45
0	505843	946.25	21.35
0	505844	946.25	21.25
0	505845	946.25	21.15
0	505846	946.25	21.05
0	505847	946.25	20.95
0	505848	946.25	20.85
0	505849	946.25	20.75
0	505850	946.25	20.65
0	505851	946.25	20.55
0	505852	946.25	20.45
0	505853	946.25	20.35
0	505854	946.25	20.25
0	505855	946.25	20.15
0	505856	946.25	20.05
0	505857	946.25	19.95
0	505858	946.25	19.85
0	505859	946.25	19.75
0	505860	946.25	19.65
0	505861	946.25	19.55
0	505862	946.25	19.45
0	505863	946.25	19.35
0	505864	946.25	19.25
0	505865	946.25	19.15
0	505866	946.25	19.05
0	505867	946.25	18.95
0	505868	946.25	18.85
0	505869	946.25	18.75
0	505870	946.25	18.65
0	505871	946.25	18.55
0	505872	946.25	18.45
0	505873	946.25	18.35
0	505874	946.25	18.25
0	505875	946.25	18.15
0	505876	946.25	18.05
0	505877	946.25	17.95
0	505878	946.25	17.85
0	505879	946.25	17.75
0	505880	946.25	17.65
0	505881	946.25	17.55
0	505882	946.25	17.45
0	505883	946.25	17.35
0	505884	946.25	17.25
0	505885	946.25	17.15
0	505886	946.25	17.05
0	505887	946.25	16.95
0	505888	946.25	16.85
0	505889	946.25	16.75
0	505890	946.25	16.65
0	505891	946.25	16.55
0	505892	946.25	16.45
0	505893	946.25	16.35
0	505894	946.25	16.25
0	505895	946.25	16.15
0	505896	946.25	16.05
0	505897	946.25	15.95
0	505898	946.25	15.85
0	505899	946.25	15.75
0	505900	946.25	15.65
0	505901	946.25	15.55
0	505902	946.25	15.45
0	505903	946.25	15.35
0	505904	946.25	15.25
0	505905	946.25	15.15
0	505906	946.25	15.05
0	505907	946.25	14.95
0	505908	946.25	14.85
0	505909	946.25	14.75
0	505910	946.25	14.65
0	505911	946.25	14.55
0	505912	946.25	14.45
0	505913	946.25	14.35
0	505914	946.25	14.25
0	505915	946.25	14.15
0	505916	946.25	14.05
0	505917	946.25	13.95
0	505918	946.25	13.85
0	505919	946.25	13.75
0	505920	946.25	13.65
0	505921	946.25	13.55
0	505922	946.25	13.45
0	505923	946.25	13.35
0	505924	946.25	13.25
0	505925	946.25	13.15
0	505926	946.25	13.05
0	505927	946.25	12.95
0	505928	946.25	12.85
0	505929	946.25	12.75
0	505930	946.25	12.65
0	505931	946.25	12.55
0	505932	946.25	12.45
0	505933	946.25	12.35
0	505934	946.25	12.25
0	505935	946.25	12.15
0	505936	946.25	12.05
0	505937	946.25	11.95
0	505938	946.25	11.85
0	505939	946.25	11.75
0	505940	946.25	11.65
0	505941	946.25	11.55
0	505942	946.25	11.45
0	505943	946.25	11.35
0	505944	946.25	11.25
0	505945	946.25	11.15
0	505946	946.25	11.05
0	505947	946.25	10.95
0	505948	946.25	10.85
0	505949	946.25	10.75
0	505950	946.25	10.65
0	505951	946.25	10.55
0	505952	946.25	10.45
0	505953	946.25	10.35
0	505954	946.25	10.25
0	505955	946.25	10.15
0	505956	946.25	10.05
0	505957	946.25	9.95
0	505958	946.25	9.85
0	505959	946.25	9.75
0	505960	946.25	9.65
0	505961	946.25	9.55
0	505962	946.25	9.45
0	505963	946.25	9.35
0	505964	946.25	9.25
0	505965	946.25	9.15
0	505966	946.25	9.05
0	505967	946.25	8.95
0	505968	946.25	8.85
0	505969	946.25	8.75
0	505970	946.25	8.65
0	505971	946.25	8.55
0	505972	946.25	8.45
0	505973	946.25	8.35
0	505974	946.25	8.25
0	505975	946.25	8.15
0	505976	946.25	8.05
0	505977	946.25	7.95
0	505978	946.25	7.85
0	505979	946.25	7.75
0	505980	946.25	7.65
0	505981	946.25	7.55
0	505982	946.25	7.45
0	505983	946.25	7.35
0	505984	946.25	7.25
0	505985	946.25	7.15
0	505986	946.25	7.05
0	505987	946.25	6.95
0	505988	946.25	6.85
0	505989	946.25	6.75
0	505990	946.25	6.65
0	505991	946.25	6.55
0	505992	946.25	6.45
0	505993	946.25	6.35
0	505994	946.25	6.25
0	505995	946.25	6.15
0	505996	946.25	6.05
0	505997	946.25	5.95
0	505998	946.25	5.85
0	505999	946.25	5.75
0	506000	946.25	5.65
0	506001	946.25	5.55
0	506002	946.25	5.45
0	506003	946.25	5.35
0	506004	946.25	5.25
0	506005	946.25	5.15
0	506006	946.25	5.05
0	506007	946.25	4.95
0	506008	946.25	4.85
0	506009	946.25	4.75
0	506010	946.25	4.65
0	506011	946.25	4.55
0	506012	946.25	4.45
0	506013	946.25	4.35
0	506014	946.25	4.25
0	506015	946.25	4.15
0	506016	946.25	4.05
0	506017	946.25	3.95
0	506018	946.25	3.85
0	506019	946.25	3.75
0	506020	946.25	3.65
0	506021	946.25	3.55
0	506022	946.25	3.45
0	506023	946.25	3.35
0	506024	946.25	3.25
0	506025	946.25	3.15
0	506026	946.25	3.05
0	506027	946.25	2.95
0	506028	946.25	2.85
0	506029	946.25	2.75
0	506030	946.25	2.65
0	506031	946.25	2.55
0	506032	946.25	2.45
0	506033	946.25	2.35
0	506034	946.25	2.25
0	506035	946.25	2.15
0	506036	946.25	2.05
0	506037	946.25	1.95
0	506038	946.25	1.85
0	506039	946.25	1.75
0	506040	946.25	1.65
0	506041	946.25	1.55
0	506042	946.25	1.45
0	506045	946.27	1.37
0	506077	946.37	1.37
0	506109	946.47	1.37
0	506141	946.57	1.37
0	506173	946.67	1.37
0	506205	946.77	1.37
0	506237	946.87	1.37
0	506266	946.97	1.37
0	506301	947.07	1.37
0	506330	947.17	1.37
0	506823	947.27	1.37
0	506854	947.37	1.37
0	506885	947.47	1.37
0	506916	947.57	1.37
0	506947	947.67	1.37
0	506978	947.77	1.37
0	507009	947.87	1.37
0	507040	947.97	1.37
0	507079	948.07	1.37
0	507121	948.17	1.37
0	507162	948.27	1.37
0	507212	948.37	1.37
0	507259	948.47	1.37
0	507306	948.57	1.37
0	507353	948.67	1.37
0	507400	948.77	1.37
0	507447	948.87	1.37
0	507494	948.97	1.37
0	507549	949.07	1.37
0	507598	949.17	1.37
0	507647	949.27	1.37
0	507696	949.37	1.37
0	507749	949.47	1.37
0	507808	949.57	1.37
0	507868	949.67	1.37
0	507926	949.77	1.37
0	507984	949.87	1.37
0	508042	949.97	1.37
0	508592	950.07	1.37
0	509143	950.17	1.37
0	509203	950.27	1.37
0	509263	950.37	1.37
0	509323	950.47	1.37
0	509383	950.57	1.37
0	509443	950.67	1.37
0	509503	950.77	1.37
0	509563	950.87	1.37
0	509623	950.97	1.37
0	509687	951.07	1.37
0	510240	951.17	1.37
0	510294	951.27	1.37
0	510346	951.37	1.37
0	510398	951.47	1.37
0	510450	951.57	1.37
0	510502	951.67	1.37
0	510554	951.77	1.37
0	510606	951.87	1.37
0	510655	951.97	1.37
0	510709	952.07	1.37
0	510778	952.17	1.37
0	510845	952.27	1.37
0	510908	952.37	1.37
0	510965	952.47	1.37
0	511020	952.57	1.37
0	511075	952.67	1.37
0	511130	952.77	1.37
0	511185	952.87	1.37
0	511240	952.97	1.37
0	511301	953.07	1.37
0	511361	953.17	1.37
0	511415	953.27	1.37
0	511416	953.27	1.27
0	511468	953.37	1.27
0	511520	953.47	1.27
0	511572	953.57	1.27
0	511624	953.67	1.27
0	511676	953.77	1.27
0	511728	953.87	1.27
0	511780	953.97	1.27
0	511834	954.07	1.27
0	511881	954.17	1.27
0	511924	954.27	1.27
0	511965	954.37	1.27
0	512006	954.47	1.27
0	512047	954.57	1.27
0	512088	954.67	1.27
0	512129	954.77	1.27
0	512170	954.87	1.27
0	512208	954.97	1.27
0	513438	957.13	3.33
0	513439	957.13	3.23
0	513440	957.13	3.13
0	513441	957.13	3.03
0	513442	957.13	2.93
0	513443	957.13	2.83
0	513444	957.13	2.73
0	513445	957.13	2.63
0	513446	957.13	2.53
0	513447	957.13	2.43
0	513448	957.13	2.33
0	513449	957.13	2.23
0	513450	957.13	2.13
0	513451	957.13	2.03
0	513452	957.13	1.93
0	513453	957.13	1.83
0	513454	957.13	1.73
0	513455	957.13	1.63
0	513456	957.13	1.53
0	513457	957.13	1.43
0	513498	957.2	1.4
0	513540	957.3	1.4
0	513582	957.4	1.4
0	513624	957.5	1.4
0	513666	957.6	1.4
0	513708	957.7	1.4
0	513750	957.8	1.4
0	513791	957.9	1.4
0	513832	958	1.4
0	513843	958.1	1.4
0	515552	963.4	6.6
0	515553	963.4	6.5
0	515554	963.4	6.4
0	515555	963.4	6.3
0	515556	963.4	6.2
0	515557	963.4	6.1
0	515558	963.4	6
0	515559	963.4	5.9
0	515560	963.4	5.8
0	515561	963.4	5.7
0	515562	963.4	5.6
0	515563	963.4	5.5
0	515564	963.4	5.4
0	515565	963.4	5.3
0	515566	963.4	5.2
0	515567	963.4	5.1
0	515568	963.4	5
0	515569	963.4	4.9
0	515570	963.4	4.8
0	515571	963.4	4.7
0	515572	963.4	4.6
0	515573	963.4	4.5
0	515574	963.4	4.4
0	515575	963.4	4.3
0	515576	963.4	4.2
0	515577	963.4	4.1
0	515578	963.4	4
0	515579	963.4	3.9
0	515580	963.4	3.8
0	515581	963.4	3.7
0	515582	963.4	3.6
0	515583	963.4	3.5
0	515584	963.4	3.4
0	515585	963.4	3.3
0	515586	963.4	3.2
0	515587	963.4	3.1
0	515588	963.4	3
0	515589	963.4	2.9
0	515590	963.4	2.8
0	515591	963.4	2.7
0	515592	963.4	2.6
0	515593	963.4	2.5
0	515594	963.4	2.4
0	515595	963.4	2.3
0	515596	963.4	2.2
0	515597	963.4	2.1
0	515598	963.4	2
0	515599	963.4	1.9
0	515600	963.4	1.8
0	515601	963.4	1.7
0	515602	963.4	1.6
0	515603	963.4	1.5
0	515604	963.4	1.4
0	515652	963.5	1.4
0	515700	963.6	1.4
0	515748	963.7	1.4
0	515796	963.8	1.4
0	515844	963.9	1.4
0	515893	964	1.4
0	515941	964.1	1.4
0	516093	964.2	1.4
0	516143	964.3	1.4
0	516193	964.4	1.4
0	516243	964.5	1.4
0	516293	964.6	1.4
0	516343	964.7	1.4
0	516393	964.8	1.4
0	516443	964.9	1.4
0	516493	965	1.4
0	516991	965.1	1.4
0	517426	965.3	1.5
0	517427	965.3	1.4
0	517496	965.4	1.4
0	517565	965.5	1.4
0	517634	965.6	1.4
0	517703	965.7	1.4
0	517772	965.8	1.4
0	517840	965.9	1.4
0	517911	966	1.4
0	517981	966.1	1.4
0	518039	966.2	1.4
0	518095	966.3	1.4
0	518145	966.38	1.38
0	518198	966.48	1.38
0	518251	966.58	1.38
0	518304	966.68	1.38
0	518357	966.78	1.38
0	518410	966.88	1.38
0	518463	966.98	1.38
0	519867	967.08	1.38
0	521772	967.18	1.38
0	522472	967.28	1.38
0	522532	967.38	1.38
0	522592	967.48	1.38
0	522652	967.58	1.38
0	522712	967.68	1.38
0	522772	967.78	1.38
0	522832	967.88	1.38
0	522889	967.98	1.38
0	533718	999.13	32.43
0	533719	999.13	32.33
0	533720	999.13	32.23
0	533721	999.13	32.13
0	533722	999.13	32.03
0	533723	999.13	31.93
0	533724	999.13	31.83
0	533725	999.13	31.73
0	533726	999.13	31.63
0	533727	999.13	31.53
0	533728	999.13	31.43
0	533729	999.13	31.33
0	533730	999.13	31.23
0	533731	999.13	31.13
0	533732	999.13	31.03
0	533733	999.13	30.93
0	533734	999.13	30.83
0	533735	999.13	30.73
0	533736	999.13	30.63
0	533737	999.13	30.53
0	533738	999.13	30.43
0	533739	999.13	30.33
0	533740	999.13	30.23
0	533741	999.13	30.13
0	533742	999.13	30.03
0	533743	999.13	29.93
0	533744	999.13	29.83
0	533745	999.13	29.73
0	533746	999.13	29.63
0	533747	999.13	29.53
0	533748	999.13	29.43
0	533749	999.13	29.33
0	533750	999.13	29.23
0	533751	999.13	29.13
0	533752	999.13	29.03
0	533753	999.13	28.93
0	533754	999.13	28.83
0	533755	999.13	28.73
0	533756	999.13	28.63
0	533757	999.13	28.53
0	533758	999.13	28.43
0	533759	999.13	28.33
0	533760	999.13	28.23
0	533761	999.13	28.13
0	533762	999.13	28.03
0	533763	999.13	27.93
0	533764	999.13	27.83
0	533765	999.13	27.73
0	533766	999.13	27.63
0	533767	999.13	27.53
0	533768	999.13	27.43
0	533769	999.13	27.33
0	533770	999.13	27.23
0	533771	999.13	27.13
0	533772	999.13	27.03
0	533773	999.13	26.93
0	533774	999.13	26.83
0	533775	999.13	26.73
0	533776	999.13	26.63
0	533777	999.13	26.53
0	533778	999.13	26.43
0	533779	999.13	26.33
0	533780	999.13	26.23
0	533781	999.13	26.13
0	533782	999.13	26.03
0	533783	999.13	25.93
0	533784	999.13	25.83
0	533785	999.13	25.73
0	533786	999.13	25.63
0	533787	999.13	25.53
0	533788	999.13	25.43
0	533789	999.13	25.33
0	533790	999.13	25.23
0	533791	999.13	25.13
0	533792	999.13	25.03
0	533793	999.13	24.93
0	533794	999.13	24.83
0	533795	999.13	24.73
0	533796	999.13	24.63
0	533797	999.13	24.53
0	533798	999.13	24.43
0	533799	999.13	24.33
0	533800	999.13	24.23
0	533801	999.13	24.13
0	533802	999.13	24.03
0	533803	999.13	23.93
0	533804	999.13	23.83
0	533805	999.13	23.73
0	533806	999.13	23.63
0	533807	999.13	23.53
0	533808	999.13	23.43
0	533809	999.13	23.33
0	533810	999.13	23.23
0	533811	999.13	23.13
0	533812	999.13	23.03
0	533813	999.13	22.93
0	533814	999.13	22.83
0	533815	999.13	22.73
0	533816	999.13	22.63
0	533817	999.13	22.53
0	533818	999.13	22.43
0	533819	999.13	22.33
0	533820	999.13	22.23
0	533821	999.13	22.13
0	533822	999.13	22.03
0	533823	999.13	21.93
0	533824	999.13	21.83
0	533825	999.13	21.73
0	533826	999.13	21.63
0	533827	999.13	21.53
0	533828	999.13	21.43
0	533829	999.13	21.33
0	533830	999.13	21.23
0	533831	999.13	21.13
0	533832	999.13	21.03
0	533833	999.13	20.93
0	533834	999.13	20.83
0	533835	999.13	20.73
0	533836	999.13	20.63
0	533837	999.13	20.53
0	533838	999.13	20.43
0	533839	999.13	20.33
0	533840	999.13	20.23
0	533841	999.13	20.13
0	533842	999.13	20.03
0	533843	999.13	19.93
0	533844	999.13	19.83
0	533845	999.13	19.73
0	533846	999.13	19.63
0	533847	999.13	19.53
0	533848	999.13	19.43
0	533849	999.13	19.33
0	533850	999.13	19.23
0	533851	999.13	19.13
0	533852	999.13	19.03
0	533853	999.13	18.93
0	533854	999.13	18.83
0	533855	999.13	18.73
0	533856	999.13	18.63
0	533857	999.13	18.53
0	533858	999.13	18.43
0	533859	999.13	18.33
0	533860	999.13	18.23
0	533861	999.13	18.13
0	533862	999.13	18.03
0	533863	999.13	17.93
0	533864	999.13	17.83
0	533865	999.13	17.73
0	533866	999.13	17.63
0	533867	999.13	17.53
0	533868	999.13	17.43
0	533869	999.13	17.33
0	533870	999.13	17.23
0	533871	999.13	17.13
0	533872	999.13	17.03
0	533873	999.13	16.93
0	533874	999.13	16.83
0	533875	999.13	16.73
0	533876	999.13	16.63
0	533877	999.13	16.53
0	533878	999.13	16.43
0	533879	999.13	16.33
0	533880	999.13	16.23
0	533881	999.13	16.13
0	533882	999.13	16.03
0	533883	999.13	15.93
0	533884	999.13	15.83
0	533885	999.13	15.73
0	533886	999.13	15.63
0	533887	999.13	15.53
0	533888	999.13	15.43
0	533889	999.13	15.33
0	533890	999.13	15.23
0	533891	999.13	15.13
0	533892	999.13	15.03
0	533893	999.13	14.93
0	533894	999.13	14.83
0	533895	999.13	14.73
0	533896	999.13	14.63
0	533897	999.13	14.53
0	533898	999.13	14.43
0	533899	999.13	14.33
0	533900	999.13	14.23
0	533901	999.13	14.13
0	533902	999.13	14.03
0	533903	999.13	13.93
0	533904	999.13	13.83
0	533905	999.13	13.73
0	533906	999.13	13.63
0	533907	999.13	13.53
0	533908	999.13	13.43
0	533909	999.13	13.33
0	533910	999.13	13.23
0	533911	999.13	13.13
0	533912	999.13	13.03
0	533913	999.13	12.93
0	533914	999.13	12.83
0	533915	999.13	12.73
0	533916	999.13	12.63
0	533917	999.13	12.53
0	533918	999.13	12.43
0	533919	999.13	12.33
0	533920	999.13	12.23
0	533921	999.13	12.13
0	533922	999.13	12.03
0	533923	999.13	11.93
0	533924	999.13	11.83
0	533925	999.13	11.73
0	533926	999.13	11.63
0	533927	999.13	11.53
0	533928	999.13	11.43
0	533929	999.13	11.33
0	533930	999.13	11.23
0	533931	999.13	11.13
0	533932	999.13	11.03
0	533933	999.13	10.93
0	533934	999.13	10.83
0	533935	999.13	10.73
0	533936	999.13	10.63
0	533937	999.13	10.53
0	533938	999.13	10.43
0	533939	999.13	10.33
0	533940	999.13	10.23
0	533941	999.13	10.13
0	533942	999.13	10.03
0	533943	999.13	9.93
0	533944	999.13	9.83
0	533945	999.13	9.73
0	533946	999.13	9.63
0	533947	999.13	9.53
0	533948	999.13	9.43
0	533949	999.13	9.33
0	533950	999.13	9.23
0	533951	999.13	9.13
0	533952	999.13	9.03
0	533953	999.13	8.93
0	533954	999.13	8.83
0	533955	999.13	8.73
0	533956	999.13	8.63
0	533957	999.13	8.53
0	533958	999.13	8.43
0	533959	999.13	8.33
0	533960	999.13	8.23
0	533961	999.13	8.13
0	533962	999.13	8.03
0	533963	999.13	7.93
0	533964	999.13	7.83
0	533965	999.13	7.73
0	533966	999.13	7.63
0	533967	999.13	7.53
0	533968	999.13	7.43
0	533969	999.13	7.33


