version 2
run General-0-20250128-16:05:22-68947
attr configname General
attr datetime 20250128-16:05:22
attr experiment General
attr inifile shaw_false.ini
attr iterationvars ""
attr iterationvarsf ""
attr measurement ""
attr network src.dtnsim
attr processid 68947
attr repetition 0
attr replication #0
attr resultdir results
attr runnumber 0
attr seedset 0
param dtnsim.central.contactsFile "\"contactPlan/Contacts.txt\""
param dtnsim.central.contactsFile_A "\"contactPlan/Contacts.txt\""
param dtnsim.central.contactsFile_B "\"contactPlan/Contacts.txt\""
param dtnsim.central.contactIdsToDelete "\"6 9 13 14 15 17 18 23 24 26 29 43 53 64 65 67 69 75 76 77 79 85 87 88 90 93 95 97 100 105 108 117 127 128 136 137 144 145 148 149 151 153 154 157 158 162 170 177 191 194 201 203 206 222 223 230 234 235 238 239 243 244 245 251 254 255 257 258 259 265 269 273 276 277 282 283 287 293 294 297 301 305 308 315 316 318 321 339 340 347 349 353 354 356 359 365 380 384 391 393\""
param dtnsim.central.contactIdsToDelete_from_celestialA "\"13 15 17 23 29 64 67 77 85 95 97 100 105 117 128 137 148 149 154 191 206 230 235 238 244 255 257 258 265 269 273 276 277 283 294 297 308 316 318 339 347 349 356 359 380 391 393\""
param dtnsim.central.contactIdsToDelete_from_celestialB "\"6 9 14 18 24 26 43 53 65 69 75 76 79 87 88 90 93 108 127 136 144 145 151 153 157 158 162 170 177 194 201 203 222 223 234 239 243 245 251 254 259 282 287 293 301 305 315 321 340 353 354 365 384\""
param dtnsim.central.celestialA_nodes "\"1 2 3\""
param dtnsim.central.celestialB_nodes "\"4 5 6\""
param dtnsim.central.locallyfaultsAware false
param dtnsim.central.mode_two_celestial true
param dtnsim.central.faultsAware false
param dtnsim.nodesNumber 6
param dtnsim.node[1].icon "\"receiverdish\""
param dtnsim.node[2..5].icon "\"satellite\""
param dtnsim.node[6].icon "\"receiverdish\""
param dtnsim.node[*].dtn.routing "\"cgrModel350\""
param dtnsim.node[*].dtn.routingType "\"routeListType:allPaths-firstEnding,volumeAware:allContacts,extensionBlock:on,contactPlan:global\""
param dtnsim.node[1].app.enable true
param dtnsim.node[1].app.custodyTransfer true
param dtnsim.node[1].app.bundlesNumber "\"2000\""
param dtnsim.node[1].app.start "\"0\""
param dtnsim.node[1].app.destinationEid "\"6\""
param dtnsim.node[1].app.size "\"1500\""
param dtnsim.node[1].app.interval 10
param dtnsim.node[*].app.custodyTimeout 10000
param dtnsim.node[1].app.ttl 10000

vector 0 dtnsim.node[6].app appBundleReceivedDelayvec:vector ETV
attr interpolationmode none
attr source appBundleReceivedDelay
attr title "appBundleReceivedDelayvec, vector"
0	7947	1458.07	1458.07
0	7948	1458.07	1448.07
0	7949	1458.07	1438.07
0	7950	1458.07	1428.07
0	7951	1458.07	1418.07
0	7952	1458.07	1408.07
0	7953	1458.07	1398.07
0	7954	1458.07	1388.07
0	7955	1458.07	1378.07
0	7956	1458.07	1368.07
0	7957	1458.07	1358.07
0	7958	1458.07	1348.07
0	7959	1458.07	1338.07
0	7960	1458.07	1328.07
0	7961	1458.07	1318.07
0	7962	1458.07	1308.07
0	8048	1460.07	1300.07
0	8140	1470.07	1300.07
0	8232	1480.07	1300.07
0	8324	1490.07	1300.07
0	8416	1500.07	1300.07
0	8508	1510.07	1300.07
0	8600	1520.07	1300.07
0	8692	1530.07	1300.07
0	8784	1540.07	1300.07
0	8876	1550.07	1300.07
0	9161	1558.07	1558.07
0	9162	1558.07	1548.07
0	9163	1558.07	1538.07
0	9164	1558.07	1528.07
0	9165	1558.07	1518.07
0	9166	1558.07	1508.07
0	9167	1558.07	1498.07
0	9168	1558.07	1488.07
0	9169	1558.07	1478.07
0	9170	1558.07	1468.07
0	9171	1558.07	1458.07
0	9172	1558.07	1448.07
0	9173	1558.07	1438.07
0	9174	1558.07	1428.07
0	9175	1558.07	1418.07
0	9176	1558.07	1408.07
0	9177	1558.07	1558.07
0	9178	1558.07	1548.07
0	9179	1558.07	1538.07
0	9180	1558.07	1528.07
0	9181	1558.07	1518.07
0	9182	1558.07	1508.07
0	9183	1558.07	1498.07
0	9184	1558.07	1488.07
0	9185	1558.07	1478.07
0	9186	1558.07	1468.07
0	9187	1558.07	1458.07
0	9188	1558.07	1448.07
0	9189	1558.07	1438.07
0	9190	1558.07	1428.07
0	9191	1558.07	1418.07
0	9192	1558.07	1408.07
0	9291	1560.07	1400.07
0	9292	1560.07	1400.07
0	9293	1560.07	1300.07
0	9402	1570.07	1400.07
0	9403	1570.07	1400.07
0	9404	1570.07	1300.07
0	9513	1580.07	1400.07
0	9514	1580.07	1400.07
0	9515	1580.07	1300.07
0	9624	1590.07	1400.07
0	9625	1590.07	1400.07
0	9626	1590.07	1300.07
0	9735	1600.07	1400.07
0	9736	1600.07	1400.07
0	9737	1600.07	1300.07
0	9846	1610.07	1400.07
0	9847	1610.07	1400.07
0	9848	1610.07	1300.07
0	9957	1620.07	1400.07
0	9958	1620.07	1400.07
0	9959	1620.07	1300.07
0	10068	1630.07	1400.07
0	10069	1630.07	1400.07
0	10070	1630.07	1300.07
0	10179	1640.07	1400.07
0	10180	1640.07	1400.07
0	10181	1640.07	1300.07
0	10290	1650.07	1400.07
0	10291	1650.07	1400.07
0	10292	1650.07	1300.07
0	10597	1658.07	1658.07
0	10598	1658.07	1648.07
0	10599	1658.07	1638.07
0	10600	1658.07	1628.07
0	10601	1658.07	1618.07
0	10602	1658.07	1608.07
0	10603	1658.07	1598.07
0	10604	1658.07	1588.07
0	10605	1658.07	1578.07
0	10606	1658.07	1568.07
0	10607	1658.07	1558.07
0	10608	1658.07	1548.07
0	10609	1658.07	1538.07
0	10610	1658.07	1528.07
0	10611	1658.07	1518.07
0	10612	1658.07	1508.07
0	10613	1658.07	1658.07
0	10614	1658.07	1648.07
0	10615	1658.07	1638.07
0	10616	1658.07	1628.07
0	10617	1658.07	1618.07
0	10618	1658.07	1608.07
0	10619	1658.07	1598.07
0	10620	1658.07	1588.07
0	10621	1658.07	1578.07
0	10622	1658.07	1568.07
0	10623	1658.07	1558.07
0	10624	1658.07	1548.07
0	10625	1658.07	1538.07
0	10626	1658.07	1528.07
0	10627	1658.07	1518.07
0	10628	1658.07	1508.07
0	10741	1660.07	1500.07
0	10742	1660.07	1400.07
0	10743	1660.07	1500.07
0	10744	1660.07	1400.07
0	10745	1660.07	1300.07
0	10872	1670.07	1500.07
0	10873	1670.07	1400.07
0	10874	1670.07	1500.07
0	10875	1670.07	1400.07
0	10876	1670.07	1300.07
0	11003	1680.07	1500.07
0	11004	1680.07	1400.07
0	11005	1680.07	1500.07
0	11006	1680.07	1400.07
0	11007	1680.07	1300.07
0	11134	1690.07	1500.07
0	11135	1690.07	1400.07
0	11136	1690.07	1500.07
0	11137	1690.07	1400.07
0	11138	1690.07	1300.07
0	11265	1700.07	1500.07
0	11266	1700.07	1400.07
0	11267	1700.07	1500.07
0	11268	1700.07	1400.07
0	11269	1700.07	1300.07
0	11396	1710.07	1500.07
0	11397	1710.07	1400.07
0	11398	1710.07	1500.07
0	11399	1710.07	1400.07
0	11400	1710.07	1300.07
0	11527	1720.07	1500.07
0	11528	1720.07	1400.07
0	11529	1720.07	1500.07
0	11530	1720.07	1400.07
0	11531	1720.07	1300.07
0	11658	1730.07	1500.07
0	11659	1730.07	1400.07
0	11660	1730.07	1500.07
0	11661	1730.07	1400.07
0	11662	1730.07	1300.07
0	11789	1740.07	1500.07
0	11790	1740.07	1400.07
0	11791	1740.07	1500.07
0	11792	1740.07	1400.07
0	11793	1740.07	1300.07
0	11920	1750.07	1500.07
0	11921	1750.07	1400.07
0	11922	1750.07	1500.07
0	11923	1750.07	1400.07
0	11924	1750.07	1300.07
0	12233	1758.07	1758.07
0	12234	1758.07	1748.07
0	12235	1758.07	1738.07
0	12236	1758.07	1728.07
0	12237	1758.07	1718.07
0	12238	1758.07	1708.07
0	12239	1758.07	1698.07
0	12240	1758.07	1688.07
0	12241	1758.07	1678.07
0	12242	1758.07	1668.07
0	12243	1758.07	1658.07
0	12244	1758.07	1648.07
0	12245	1758.07	1638.07
0	12246	1758.07	1628.07
0	12247	1758.07	1618.07
0	12248	1758.07	1608.07
0	12249	1758.07	1758.07
0	12250	1758.07	1748.07
0	12251	1758.07	1738.07
0	12252	1758.07	1728.07
0	12253	1758.07	1718.07
0	12254	1758.07	1708.07
0	12255	1758.07	1698.07
0	12256	1758.07	1688.07
0	12257	1758.07	1678.07
0	12258	1758.07	1668.07
0	12259	1758.07	1658.07
0	12260	1758.07	1648.07
0	12261	1758.07	1638.07
0	12262	1758.07	1628.07
0	12263	1758.07	1618.07
0	12264	1758.07	1608.07
0	12391	1760.07	1600.07
0	12392	1760.07	1500.07
0	12393	1760.07	1400.07
0	12394	1760.07	1600.07
0	12395	1760.07	1500.07
0	12396	1760.07	1400.07
0	12397	1760.07	1300.07
0	12542	1770.07	1600.07
0	12543	1770.07	1500.07
0	12544	1770.07	1400.07
0	12545	1770.07	1600.07
0	12546	1770.07	1500.07
0	12547	1770.07	1400.07
0	12548	1770.07	1300.07
0	12693	1780.07	1600.07
0	12694	1780.07	1500.07
0	12695	1780.07	1400.07
0	12696	1780.07	1600.07
0	12697	1780.07	1500.07
0	12698	1780.07	1400.07
0	12699	1780.07	1300.07
0	12844	1790.07	1600.07
0	12845	1790.07	1500.07
0	12846	1790.07	1400.07
0	12847	1790.07	1600.07
0	12848	1790.07	1500.07
0	12849	1790.07	1400.07
0	12850	1790.07	1300.07
0	12995	1800.07	1600.07
0	12996	1800.07	1500.07
0	12997	1800.07	1400.07
0	12998	1800.07	1600.07
0	12999	1800.07	1500.07
0	13000	1800.07	1400.07
0	13001	1800.07	1300.07
0	13146	1810.07	1600.07
0	13147	1810.07	1500.07
0	13148	1810.07	1400.07
0	13149	1810.07	1600.07
0	13150	1810.07	1500.07
0	13151	1810.07	1400.07
0	13152	1810.07	1300.07
0	13297	1820.07	1600.07
0	13298	1820.07	1500.07
0	13299	1820.07	1400.07
0	13300	1820.07	1600.07
0	13301	1820.07	1500.07
0	13302	1820.07	1400.07
0	13303	1820.07	1300.07
0	13448	1830.07	1600.07
0	13449	1830.07	1500.07
0	13450	1830.07	1400.07
0	13451	1830.07	1600.07
0	13452	1830.07	1500.07
0	13453	1830.07	1400.07
0	13454	1830.07	1300.07
0	13599	1840.07	1600.07
0	13600	1840.07	1500.07
0	13601	1840.07	1400.07
0	13602	1840.07	1600.07
0	13603	1840.07	1500.07
0	13604	1840.07	1400.07
0	13605	1840.07	1300.07
0	13750	1850.07	1600.07
0	13751	1850.07	1500.07
0	13752	1850.07	1400.07
0	13753	1850.07	1600.07
0	13754	1850.07	1500.07
0	13755	1850.07	1400.07
0	13756	1850.07	1300.07
0	14069	1858.07	1858.07
0	14070	1858.07	1848.07
0	14071	1858.07	1838.07
0	14072	1858.07	1828.07
0	14073	1858.07	1818.07
0	14074	1858.07	1808.07
0	14075	1858.07	1798.07
0	14076	1858.07	1788.07
0	14077	1858.07	1778.07
0	14078	1858.07	1768.07
0	14079	1858.07	1758.07
0	14080	1858.07	1748.07
0	14081	1858.07	1738.07
0	14082	1858.07	1728.07
0	14083	1858.07	1718.07
0	14084	1858.07	1708.07
0	14085	1858.07	1858.07
0	14086	1858.07	1848.07
0	14087	1858.07	1838.07
0	14088	1858.07	1828.07
0	14089	1858.07	1818.07
0	14090	1858.07	1808.07
0	14091	1858.07	1798.07
0	14092	1858.07	1788.07
0	14093	1858.07	1778.07
0	14094	1858.07	1768.07
0	14095	1858.07	1758.07
0	14096	1858.07	1748.07
0	14097	1858.07	1738.07
0	14098	1858.07	1728.07
0	14099	1858.07	1718.07
0	14100	1858.07	1708.07
0	14241	1860.07	1700.07
0	14242	1860.07	1600.07
0	14243	1860.07	1500.07
0	14244	1860.07	1400.07
0	14245	1860.07	1700.07
0	14246	1860.07	1600.07
0	14247	1860.07	1500.07
0	14248	1860.07	1400.07
0	14249	1860.07	1300.07
0	14412	1870.07	1700.07
0	14413	1870.07	1600.07
0	14414	1870.07	1500.07
0	14415	1870.07	1400.07
0	14416	1870.07	1700.07
0	14417	1870.07	1600.07
0	14418	1870.07	1500.07
0	14419	1870.07	1400.07
0	14420	1870.07	1300.07
0	14583	1880.07	1700.07
0	14584	1880.07	1600.07
0	14585	1880.07	1500.07
0	14586	1880.07	1400.07
0	14587	1880.07	1700.07
0	14588	1880.07	1600.07
0	14589	1880.07	1500.07
0	14590	1880.07	1400.07
0	14591	1880.07	1300.07
0	14754	1890.07	1700.07
0	14755	1890.07	1600.07
0	14756	1890.07	1500.07
0	14757	1890.07	1400.07
0	14758	1890.07	1700.07
0	14759	1890.07	1600.07
0	14760	1890.07	1500.07
0	14761	1890.07	1400.07
0	14762	1890.07	1300.07
0	14925	1900.07	1700.07
0	14926	1900.07	1600.07
0	14927	1900.07	1500.07
0	14928	1900.07	1400.07
0	14929	1900.07	1700.07
0	14930	1900.07	1600.07
0	14931	1900.07	1500.07
0	14932	1900.07	1400.07
0	14933	1900.07	1300.07
0	15096	1910.07	1700.07
0	15097	1910.07	1600.07
0	15098	1910.07	1500.07
0	15099	1910.07	1400.07
0	15100	1910.07	1700.07
0	15101	1910.07	1600.07
0	15102	1910.07	1500.07
0	15103	1910.07	1400.07
0	15104	1910.07	1300.07
0	15267	1920.07	1700.07
0	15268	1920.07	1600.07
0	15269	1920.07	1500.07
0	15270	1920.07	1400.07
0	15271	1920.07	1700.07
0	15272	1920.07	1600.07
0	15273	1920.07	1500.07
0	15274	1920.07	1400.07
0	15275	1920.07	1300.07
0	15438	1930.07	1700.07
0	15439	1930.07	1600.07
0	15440	1930.07	1500.07
0	15441	1930.07	1400.07
0	15442	1930.07	1700.07
0	15443	1930.07	1600.07
0	15444	1930.07	1500.07
0	15445	1930.07	1400.07
0	15446	1930.07	1300.07
0	15609	1940.07	1700.07
0	15610	1940.07	1600.07
0	15611	1940.07	1500.07
0	15612	1940.07	1400.07
0	15613	1940.07	1700.07
0	15614	1940.07	1600.07
0	15615	1940.07	1500.07
0	15616	1940.07	1400.07
0	15617	1940.07	1300.07
0	15780	1950.07	1700.07
0	15781	1950.07	1600.07
0	15782	1950.07	1500.07
0	15783	1950.07	1400.07
0	15784	1950.07	1700.07
0	15785	1950.07	1600.07
0	15786	1950.07	1500.07
0	15787	1950.07	1400.07
0	15788	1950.07	1300.07
0	16105	1958.07	1958.07
0	16106	1958.07	1948.07
0	16107	1958.07	1938.07
0	16108	1958.07	1928.07
0	16109	1958.07	1918.07
0	16110	1958.07	1908.07
0	16111	1958.07	1898.07
0	16112	1958.07	1888.07
0	16113	1958.07	1878.07
0	16114	1958.07	1868.07
0	16115	1958.07	1858.07
0	16116	1958.07	1848.07
0	16117	1958.07	1838.07
0	16118	1958.07	1828.07
0	16119	1958.07	1818.07
0	16120	1958.07	1808.07
0	16121	1958.07	1958.07
0	16122	1958.07	1948.07
0	16123	1958.07	1938.07
0	16124	1958.07	1928.07
0	16125	1958.07	1918.07
0	16126	1958.07	1908.07
0	16127	1958.07	1898.07
0	16128	1958.07	1888.07
0	16129	1958.07	1878.07
0	16130	1958.07	1868.07
0	16131	1958.07	1858.07
0	16132	1958.07	1848.07
0	16133	1958.07	1838.07
0	16134	1958.07	1828.07
0	16135	1958.07	1818.07
0	16136	1958.07	1808.07
0	16243	1960.07	1800.07
0	16244	1960.07	1700.07
0	16245	1960.07	1600.07
0	16246	1960.07	1500.07
0	16247	1960.07	1400.07
0	16248	1960.07	1800.07
0	16249	1960.07	1700.07
0	16250	1960.07	1600.07
0	16251	1960.07	1500.07
0	16252	1960.07	1400.07
0	16253	1960.07	1300.07
0	16377	1970.07	1800.07
0	16378	1970.07	1700.07
0	16379	1970.07	1600.07
0	16380	1970.07	1500.07
0	16381	1970.07	1400.07
0	16382	1970.07	1800.07
0	16383	1970.07	1700.07
0	16384	1970.07	1600.07
0	16385	1970.07	1500.07
0	16386	1970.07	1400.07
0	16387	1970.07	1300.07
0	16511	1980.07	1800.07
0	16512	1980.07	1700.07
0	16513	1980.07	1600.07
0	16514	1980.07	1500.07
0	16515	1980.07	1400.07
0	16516	1980.07	1800.07
0	16517	1980.07	1700.07
0	16518	1980.07	1600.07
0	16519	1980.07	1500.07
0	16520	1980.07	1400.07
0	16521	1980.07	1300.07
0	16645	1990.07	1800.07
0	16646	1990.07	1700.07
0	16647	1990.07	1600.07
0	16648	1990.07	1500.07
0	16649	1990.07	1400.07
0	16650	1990.07	1800.07
0	16651	1990.07	1700.07
0	16652	1990.07	1600.07
0	16653	1990.07	1500.07
0	16654	1990.07	1400.07
0	16655	1990.07	1300.07
0	16779	2000.07	1800.07
0	16780	2000.07	1700.07
0	16781	2000.07	1600.07
0	16782	2000.07	1500.07
0	16783	2000.07	1400.07
0	16784	2000.07	1800.07
0	16785	2000.07	1700.07
0	16786	2000.07	1600.07
0	16787	2000.07	1500.07
0	16788	2000.07	1400.07
0	16789	2000.07	1300.07
0	16913	2010.07	1800.07
0	16914	2010.07	1700.07
0	16915	2010.07	1600.07
0	16916	2010.07	1500.07
0	16917	2010.07	1400.07
0	16918	2010.07	1800.07
0	16919	2010.07	1700.07
0	16920	2010.07	1600.07
0	16921	2010.07	1500.07
0	16922	2010.07	1400.07
0	16923	2010.07	1300.07
0	17047	2020.07	1800.07
0	17048	2020.07	1700.07
0	17049	2020.07	1600.07
0	17050	2020.07	1500.07
0	17051	2020.07	1400.07
0	17052	2020.07	1800.07
0	17053	2020.07	1700.07
0	17054	2020.07	1600.07
0	17055	2020.07	1500.07
0	17056	2020.07	1400.07
0	17057	2020.07	1300.07
0	17181	2030.07	1800.07
0	17182	2030.07	1700.07
0	17183	2030.07	1600.07
0	17184	2030.07	1500.07
0	17185	2030.07	1400.07
0	17186	2030.07	1800.07
0	17187	2030.07	1700.07
0	17188	2030.07	1600.07
0	17189	2030.07	1500.07
0	17190	2030.07	1400.07
0	17191	2030.07	1300.07
0	17315	2040.07	1800.07
0	17316	2040.07	1700.07
0	17317	2040.07	1600.07
0	17318	2040.07	1500.07
0	17319	2040.07	1400.07
0	17320	2040.07	1800.07
0	17321	2040.07	1700.07
0	17322	2040.07	1600.07
0	17323	2040.07	1500.07
0	17324	2040.07	1400.07
0	17325	2040.07	1300.07
0	17449	2050.07	1800.07
0	17450	2050.07	1700.07
0	17451	2050.07	1600.07
0	17452	2050.07	1500.07
0	17453	2050.07	1400.07
0	17454	2050.07	1800.07
0	17455	2050.07	1700.07
0	17456	2050.07	1600.07
0	17457	2050.07	1500.07
0	17458	2050.07	1400.07
0	17459	2050.07	1300.07
0	17723	2058.07	2058.07
0	17724	2058.07	2048.07
0	17725	2058.07	2038.07
0	17726	2058.07	2028.07
0	17727	2058.07	2018.07
0	17728	2058.07	2008.07
0	17729	2058.07	1998.07
0	17730	2058.07	1988.07
0	17731	2058.07	1978.07
0	17732	2058.07	1968.07
0	17733	2058.07	1958.07
0	17734	2058.07	1948.07
0	17735	2058.07	1938.07
0	17736	2058.07	1928.07
0	17737	2058.07	1918.07
0	17738	2058.07	1908.07
0	17739	2058.07	2058.07
0	17740	2058.07	2048.07
0	17741	2058.07	2038.07
0	17742	2058.07	2028.07
0	17743	2058.07	2018.07
0	17744	2058.07	2008.07
0	17745	2058.07	1998.07
0	17746	2058.07	1988.07
0	17747	2058.07	1978.07
0	17748	2058.07	1968.07
0	17749	2058.07	1958.07
0	17750	2058.07	1948.07
0	17751	2058.07	1938.07
0	17752	2058.07	1928.07
0	17753	2058.07	1918.07
0	17754	2058.07	1908.07
0	17857	2060.07	1900.07
0	17858	2060.07	1800.07
0	17859	2060.07	1700.07
0	17860	2060.07	1600.07
0	17861	2060.07	1500.07
0	17862	2060.07	1400.07
0	17863	2060.07	1900.07
0	17864	2060.07	1800.07
0	17865	2060.07	1700.07
0	17866	2060.07	1600.07
0	17867	2060.07	1500.07
0	17868	2060.07	1400.07
0	17869	2060.07	1300.07
0	17989	2070.07	1900.07
0	17990	2070.07	1800.07
0	17991	2070.07	1700.07
0	17992	2070.07	1600.07
0	17993	2070.07	1500.07
0	17994	2070.07	1400.07
0	17995	2070.07	1900.07
0	17996	2070.07	1800.07
0	17997	2070.07	1700.07
0	17998	2070.07	1600.07
0	17999	2070.07	1500.07
0	18000	2070.07	1400.07
0	18001	2070.07	1300.07
0	18121	2080.07	1900.07
0	18122	2080.07	1800.07
0	18123	2080.07	1700.07
0	18124	2080.07	1600.07
0	18125	2080.07	1500.07
0	18126	2080.07	1400.07
0	18127	2080.07	1900.07
0	18128	2080.07	1800.07
0	18129	2080.07	1700.07
0	18130	2080.07	1600.07
0	18131	2080.07	1500.07
0	18132	2080.07	1400.07
0	18133	2080.07	1300.07
0	18253	2090.07	1900.07
0	18254	2090.07	1800.07
0	18255	2090.07	1700.07
0	18256	2090.07	1600.07
0	18257	2090.07	1500.07
0	18258	2090.07	1400.07
0	18259	2090.07	1900.07
0	18260	2090.07	1800.07
0	18261	2090.07	1700.07
0	18262	2090.07	1600.07
0	18263	2090.07	1500.07
0	18264	2090.07	1400.07
0	18265	2090.07	1300.07
0	18385	2100.07	1900.07
0	18386	2100.07	1800.07
0	18387	2100.07	1700.07
0	18388	2100.07	1600.07
0	18389	2100.07	1500.07
0	18390	2100.07	1400.07
0	18391	2100.07	1900.07
0	18392	2100.07	1800.07
0	18393	2100.07	1700.07
0	18394	2100.07	1600.07
0	18395	2100.07	1500.07
0	18396	2100.07	1400.07
0	18397	2100.07	1300.07
0	18517	2110.07	1900.07
0	18518	2110.07	1800.07
0	18519	2110.07	1700.07
0	18520	2110.07	1600.07
0	18521	2110.07	1500.07
0	18522	2110.07	1400.07
0	18523	2110.07	1900.07
0	18524	2110.07	1800.07
0	18525	2110.07	1700.07
0	18526	2110.07	1600.07
0	18527	2110.07	1500.07
0	18528	2110.07	1400.07
0	18529	2110.07	1300.07
0	18649	2120.07	1900.07
0	18650	2120.07	1800.07
0	18651	2120.07	1700.07
0	18652	2120.07	1600.07
0	18653	2120.07	1500.07
0	18654	2120.07	1400.07
0	18655	2120.07	1900.07
0	18656	2120.07	1800.07
0	18657	2120.07	1700.07
0	18658	2120.07	1600.07
0	18659	2120.07	1500.07
0	18660	2120.07	1400.07
0	18661	2120.07	1300.07
0	18781	2130.07	1900.07
0	18782	2130.07	1800.07
0	18783	2130.07	1700.07
0	18784	2130.07	1600.07
0	18785	2130.07	1500.07
0	18786	2130.07	1400.07
0	18787	2130.07	1900.07
0	18788	2130.07	1800.07
0	18789	2130.07	1700.07
0	18790	2130.07	1600.07
0	18791	2130.07	1500.07
0	18792	2130.07	1400.07
0	18793	2130.07	1300.07
0	18913	2140.07	1900.07
0	18914	2140.07	1800.07
0	18915	2140.07	1700.07
0	18916	2140.07	1600.07
0	18917	2140.07	1500.07
0	18918	2140.07	1400.07
0	18919	2140.07	1900.07
0	18920	2140.07	1800.07
0	18921	2140.07	1700.07
0	18922	2140.07	1600.07
0	18923	2140.07	1500.07
0	18924	2140.07	1400.07
0	18925	2140.07	1300.07
0	19045	2150.07	1900.07
0	19046	2150.07	1800.07
0	19047	2150.07	1700.07
0	19048	2150.07	1600.07
0	19049	2150.07	1500.07
0	19050	2150.07	1400.07
0	19051	2150.07	1900.07
0	19052	2150.07	1800.07
0	19053	2150.07	1700.07
0	19054	2150.07	1600.07
0	19055	2150.07	1500.07
0	19056	2150.07	1400.07
0	19057	2150.07	1300.07
0	19303	2158.07	2158.07
0	19304	2158.07	2148.07
0	19305	2158.07	2138.07
0	19306	2158.07	2128.07
0	19307	2158.07	2118.07
0	19308	2158.07	2108.07
0	19309	2158.07	2098.07
0	19310	2158.07	2088.07
0	19311	2158.07	2078.07
0	19312	2158.07	2068.07
0	19313	2158.07	2058.07
0	19314	2158.07	2048.07
0	19315	2158.07	2038.07
0	19316	2158.07	2028.07
0	19317	2158.07	2018.07
0	19318	2158.07	2008.07
0	19319	2158.07	2158.07
0	19320	2158.07	2148.07
0	19321	2158.07	2138.07
0	19322	2158.07	2128.07
0	19323	2158.07	2118.07
0	19324	2158.07	2108.07
0	19325	2158.07	2098.07
0	19326	2158.07	2088.07
0	19327	2158.07	2078.07
0	19328	2158.07	2068.07
0	19329	2158.07	2058.07
0	19330	2158.07	2048.07
0	19331	2158.07	2038.07
0	19332	2158.07	2028.07
0	19333	2158.07	2018.07
0	19334	2158.07	2008.07
0	19451	2160.07	2000.07
0	19452	2160.07	1900.07
0	19453	2160.07	1800.07
0	19454	2160.07	1700.07
0	19455	2160.07	1600.07
0	19456	2160.07	1500.07
0	19457	2160.07	1400.07
0	19458	2160.07	2000.07
0	19459	2160.07	1900.07
0	19460	2160.07	1800.07
0	19461	2160.07	1700.07
0	19462	2160.07	1600.07
0	19463	2160.07	1500.07
0	19464	2160.07	1400.07
0	19465	2160.07	1300.07
0	19599	2170.07	2000.07
0	19600	2170.07	1900.07
0	19601	2170.07	1800.07
0	19602	2170.07	1700.07
0	19603	2170.07	1600.07
0	19604	2170.07	1500.07
0	19605	2170.07	1400.07
0	19606	2170.07	2000.07
0	19607	2170.07	1900.07
0	19608	2170.07	1800.07
0	19609	2170.07	1700.07
0	19610	2170.07	1600.07
0	19611	2170.07	1500.07
0	19612	2170.07	1400.07
0	19613	2170.07	1300.07
0	19747	2180.07	2000.07
0	19748	2180.07	1900.07
0	19749	2180.07	1800.07
0	19750	2180.07	1700.07
0	19751	2180.07	1600.07
0	19752	2180.07	1500.07
0	19753	2180.07	1400.07
0	19754	2180.07	2000.07
0	19755	2180.07	1900.07
0	19756	2180.07	1800.07
0	19757	2180.07	1700.07
0	19758	2180.07	1600.07
0	19759	2180.07	1500.07
0	19760	2180.07	1400.07
0	19761	2180.07	1300.07
0	19895	2190.07	2000.07
0	19896	2190.07	1900.07
0	19897	2190.07	1800.07
0	19898	2190.07	1700.07
0	19899	2190.07	1600.07
0	19900	2190.07	1500.07
0	19901	2190.07	1400.07
0	19902	2190.07	2000.07
0	19903	2190.07	1900.07
0	19904	2190.07	1800.07
0	19905	2190.07	1700.07
0	19906	2190.07	1600.07
0	19907	2190.07	1500.07
0	19908	2190.07	1400.07
0	19909	2190.07	1300.07
0	20043	2200.07	2000.07
0	20044	2200.07	1900.07
0	20045	2200.07	1800.07
0	20046	2200.07	1700.07
0	20047	2200.07	1600.07
0	20048	2200.07	1500.07
0	20049	2200.07	1400.07
0	20050	2200.07	2000.07
0	20051	2200.07	1900.07
0	20052	2200.07	1800.07
0	20053	2200.07	1700.07
0	20054	2200.07	1600.07
0	20055	2200.07	1500.07
0	20056	2200.07	1400.07
0	20057	2200.07	1300.07
0	20191	2210.07	2000.07
0	20192	2210.07	1900.07
0	20193	2210.07	1800.07
0	20194	2210.07	1700.07
0	20195	2210.07	1600.07
0	20196	2210.07	1500.07
0	20197	2210.07	1400.07
0	20198	2210.07	2000.07
0	20199	2210.07	1900.07
0	20200	2210.07	1800.07
0	20201	2210.07	1700.07
0	20202	2210.07	1600.07
0	20203	2210.07	1500.07
0	20204	2210.07	1400.07
0	20205	2210.07	1300.07
0	20339	2220.07	2000.07
0	20340	2220.07	1900.07
0	20341	2220.07	1800.07
0	20342	2220.07	1700.07
0	20343	2220.07	1600.07
0	20344	2220.07	1500.07
0	20345	2220.07	1400.07
0	20346	2220.07	2000.07
0	20347	2220.07	1900.07
0	20348	2220.07	1800.07
0	20349	2220.07	1700.07
0	20350	2220.07	1600.07
0	20351	2220.07	1500.07
0	20352	2220.07	1400.07
0	20353	2220.07	1300.07
0	20487	2230.07	2000.07
0	20488	2230.07	1900.07
0	20489	2230.07	1800.07
0	20490	2230.07	1700.07
0	20491	2230.07	1600.07
0	20492	2230.07	1500.07
0	20493	2230.07	1400.07
0	20494	2230.07	2000.07
0	20495	2230.07	1900.07
0	20496	2230.07	1800.07
0	20497	2230.07	1700.07
0	20498	2230.07	1600.07
0	20499	2230.07	1500.07
0	20500	2230.07	1400.07
0	20501	2230.07	1300.07
0	20635	2240.07	2000.07
0	20636	2240.07	1900.07
0	20637	2240.07	1800.07
0	20638	2240.07	1700.07
0	20639	2240.07	1600.07
0	20640	2240.07	1500.07
0	20641	2240.07	1400.07
0	20642	2240.07	2000.07
0	20643	2240.07	1900.07
0	20644	2240.07	1800.07
0	20645	2240.07	1700.07
0	20646	2240.07	1600.07
0	20647	2240.07	1500.07
0	20648	2240.07	1400.07
0	20649	2240.07	1300.07
0	20783	2250.07	2000.07
0	20784	2250.07	1900.07
0	20785	2250.07	1800.07
0	20786	2250.07	1700.07
0	20787	2250.07	1600.07
0	20788	2250.07	1500.07
0	20789	2250.07	1400.07
0	20790	2250.07	2000.07
0	20791	2250.07	1900.07
0	20792	2250.07	1800.07
0	20793	2250.07	1700.07
0	20794	2250.07	1600.07
0	20795	2250.07	1500.07
0	20796	2250.07	1400.07
0	20797	2250.07	1300.07
0	21043	2258.07	2258.07
0	21044	2258.07	2248.07
0	21045	2258.07	2238.07
0	21046	2258.07	2228.07
0	21047	2258.07	2218.07
0	21048	2258.07	2208.07
0	21049	2258.07	2198.07
0	21050	2258.07	2188.07
0	21051	2258.07	2178.07
0	21052	2258.07	2168.07
0	21053	2258.07	2158.07
0	21054	2258.07	2148.07
0	21055	2258.07	2138.07
0	21056	2258.07	2128.07
0	21057	2258.07	2118.07
0	21058	2258.07	2108.07
0	21059	2258.07	2258.07
0	21060	2258.07	2248.07
0	21061	2258.07	2238.07
0	21062	2258.07	2228.07
0	21063	2258.07	2218.07
0	21064	2258.07	2208.07
0	21065	2258.07	2198.07
0	21066	2258.07	2188.07
0	21067	2258.07	2178.07
0	21068	2258.07	2168.07
0	21069	2258.07	2158.07
0	21070	2258.07	2148.07
0	21071	2258.07	2138.07
0	21072	2258.07	2128.07
0	21073	2258.07	2118.07
0	21074	2258.07	2108.07
0	21205	2260.07	2100.07
0	21206	2260.07	2000.07
0	21207	2260.07	1900.07
0	21208	2260.07	1800.07
0	21209	2260.07	1700.07
0	21210	2260.07	1600.07
0	21211	2260.07	1500.07
0	21212	2260.07	1400.07
0	21213	2260.07	2100.07
0	21214	2260.07	2000.07
0	21215	2260.07	1900.07
0	21216	2260.07	1800.07
0	21217	2260.07	1700.07
0	21218	2260.07	1600.07
0	21219	2260.07	1500.07
0	21220	2260.07	1400.07
0	21221	2260.07	1300.07
0	21369	2270.07	2100.07
0	21370	2270.07	2000.07
0	21371	2270.07	1900.07
0	21372	2270.07	1800.07
0	21373	2270.07	1700.07
0	21374	2270.07	1600.07
0	21375	2270.07	1500.07
0	21376	2270.07	1400.07
0	21377	2270.07	2100.07
0	21378	2270.07	2000.07
0	21379	2270.07	1900.07
0	21380	2270.07	1800.07
0	21381	2270.07	1700.07
0	21382	2270.07	1600.07
0	21383	2270.07	1500.07
0	21384	2270.07	1400.07
0	21385	2270.07	1300.07
0	21533	2280.07	2100.07
0	21534	2280.07	2000.07
0	21535	2280.07	1900.07
0	21536	2280.07	1800.07
0	21537	2280.07	1700.07
0	21538	2280.07	1600.07
0	21539	2280.07	1500.07
0	21540	2280.07	1400.07
0	21541	2280.07	2100.07
0	21542	2280.07	2000.07
0	21543	2280.07	1900.07
0	21544	2280.07	1800.07
0	21545	2280.07	1700.07
0	21546	2280.07	1600.07
0	21547	2280.07	1500.07
0	21548	2280.07	1400.07
0	21549	2280.07	1300.07
0	21697	2290.07	2100.07
0	21698	2290.07	2000.07
0	21699	2290.07	1900.07
0	21700	2290.07	1800.07
0	21701	2290.07	1700.07
0	21702	2290.07	1600.07
0	21703	2290.07	1500.07
0	21704	2290.07	1400.07
0	21705	2290.07	2100.07
0	21706	2290.07	2000.07
0	21707	2290.07	1900.07
0	21708	2290.07	1800.07
0	21709	2290.07	1700.07
0	21710	2290.07	1600.07
0	21711	2290.07	1500.07
0	21712	2290.07	1400.07
0	21713	2290.07	1300.07
0	21861	2300.07	2100.07
0	21862	2300.07	2000.07
0	21863	2300.07	1900.07
0	21864	2300.07	1800.07
0	21865	2300.07	1700.07
0	21866	2300.07	1600.07
0	21867	2300.07	1500.07
0	21868	2300.07	1400.07
0	21869	2300.07	2100.07
0	21870	2300.07	2000.07
0	21871	2300.07	1900.07
0	21872	2300.07	1800.07
0	21873	2300.07	1700.07
0	21874	2300.07	1600.07
0	21875	2300.07	1500.07
0	21876	2300.07	1400.07
0	21877	2300.07	1300.07
0	22025	2310.07	2100.07
0	22026	2310.07	2000.07
0	22027	2310.07	1900.07
0	22028	2310.07	1800.07
0	22029	2310.07	1700.07
0	22030	2310.07	1600.07
0	22031	2310.07	1500.07
0	22032	2310.07	1400.07
0	22033	2310.07	2100.07
0	22034	2310.07	2000.07
0	22035	2310.07	1900.07
0	22036	2310.07	1800.07
0	22037	2310.07	1700.07
0	22038	2310.07	1600.07
0	22039	2310.07	1500.07
0	22040	2310.07	1400.07
0	22041	2310.07	1300.07
0	22189	2320.07	2100.07
0	22190	2320.07	2000.07
0	22191	2320.07	1900.07
0	22192	2320.07	1800.07
0	22193	2320.07	1700.07
0	22194	2320.07	1600.07
0	22195	2320.07	1500.07
0	22196	2320.07	1400.07
0	22197	2320.07	2100.07
0	22198	2320.07	2000.07
0	22199	2320.07	1900.07
0	22200	2320.07	1800.07
0	22201	2320.07	1700.07
0	22202	2320.07	1600.07
0	22203	2320.07	1500.07
0	22204	2320.07	1400.07
0	22205	2320.07	1300.07
0	22353	2330.07	2100.07
0	22354	2330.07	2000.07
0	22355	2330.07	1900.07
0	22356	2330.07	1800.07
0	22357	2330.07	1700.07
0	22358	2330.07	1600.07
0	22359	2330.07	1500.07
0	22360	2330.07	1400.07
0	22361	2330.07	2100.07
0	22362	2330.07	2000.07
0	22363	2330.07	1900.07
0	22364	2330.07	1800.07
0	22365	2330.07	1700.07
0	22366	2330.07	1600.07
0	22367	2330.07	1500.07
0	22368	2330.07	1400.07
0	22369	2330.07	1300.07
0	22517	2340.07	2100.07
0	22518	2340.07	2000.07
0	22519	2340.07	1900.07
0	22520	2340.07	1800.07
0	22521	2340.07	1700.07
0	22522	2340.07	1600.07
0	22523	2340.07	1500.07
0	22524	2340.07	1400.07
0	22525	2340.07	2100.07
0	22526	2340.07	2000.07
0	22527	2340.07	1900.07
0	22528	2340.07	1800.07
0	22529	2340.07	1700.07
0	22530	2340.07	1600.07
0	22531	2340.07	1500.07
0	22532	2340.07	1400.07
0	22533	2340.07	1300.07
0	22681	2350.07	2100.07
0	22682	2350.07	2000.07
0	22683	2350.07	1900.07
0	22684	2350.07	1800.07
0	22685	2350.07	1700.07
0	22686	2350.07	1600.07
0	22687	2350.07	1500.07
0	22688	2350.07	1400.07
0	22689	2350.07	2100.07
0	22690	2350.07	2000.07
0	22691	2350.07	1900.07
0	22692	2350.07	1800.07
0	22693	2350.07	1700.07
0	22694	2350.07	1600.07
0	22695	2350.07	1500.07
0	22696	2350.07	1400.07
0	22697	2350.07	1300.07
0	22943	2358.07	2358.07
0	22944	2358.07	2348.07
0	22945	2358.07	2338.07
0	22946	2358.07	2328.07
0	22947	2358.07	2318.07
0	22948	2358.07	2308.07
0	22949	2358.07	2298.07
0	22950	2358.07	2288.07
0	22951	2358.07	2278.07
0	22952	2358.07	2268.07
0	22953	2358.07	2258.07
0	22954	2358.07	2248.07
0	22955	2358.07	2238.07
0	22956	2358.07	2228.07
0	22957	2358.07	2218.07
0	22958	2358.07	2208.07
0	22959	2358.07	2358.07
0	22960	2358.07	2348.07
0	22961	2358.07	2338.07
0	22962	2358.07	2328.07
0	22963	2358.07	2318.07
0	22964	2358.07	2308.07
0	22965	2358.07	2298.07
0	22966	2358.07	2288.07
0	22967	2358.07	2278.07
0	22968	2358.07	2268.07
0	22969	2358.07	2258.07
0	22970	2358.07	2248.07
0	22971	2358.07	2238.07
0	22972	2358.07	2228.07
0	22973	2358.07	2218.07
0	22974	2358.07	2208.07
0	23119	2360.07	2200.07
0	23120	2360.07	2100.07
0	23121	2360.07	2000.07
0	23122	2360.07	1900.07
0	23123	2360.07	1800.07
0	23124	2360.07	1700.07
0	23125	2360.07	1600.07
0	23126	2360.07	1500.07
0	23127	2360.07	1400.07
0	23128	2360.07	2200.07
0	23129	2360.07	2100.07
0	23130	2360.07	2000.07
0	23131	2360.07	1900.07
0	23132	2360.07	1800.07
0	23133	2360.07	1700.07
0	23134	2360.07	1600.07
0	23135	2360.07	1500.07
0	23136	2360.07	1400.07
0	23137	2360.07	1300.07
0	23299	2370.07	2200.07
0	23300	2370.07	2100.07
0	23301	2370.07	2000.07
0	23302	2370.07	1900.07
0	23303	2370.07	1800.07
0	23304	2370.07	1700.07
0	23305	2370.07	1600.07
0	23306	2370.07	1500.07
0	23307	2370.07	1400.07
0	23308	2370.07	2200.07
0	23309	2370.07	2100.07
0	23310	2370.07	2000.07
0	23311	2370.07	1900.07
0	23312	2370.07	1800.07
0	23313	2370.07	1700.07
0	23314	2370.07	1600.07
0	23315	2370.07	1500.07
0	23316	2370.07	1400.07
0	23317	2370.07	1300.07
0	23479	2380.07	2200.07
0	23480	2380.07	2100.07
0	23481	2380.07	2000.07
0	23482	2380.07	1900.07
0	23483	2380.07	1800.07
0	23484	2380.07	1700.07
0	23485	2380.07	1600.07
0	23486	2380.07	1500.07
0	23487	2380.07	1400.07
0	23488	2380.07	2200.07
0	23489	2380.07	2100.07
0	23490	2380.07	2000.07
0	23491	2380.07	1900.07
0	23492	2380.07	1800.07
0	23493	2380.07	1700.07
0	23494	2380.07	1600.07
0	23495	2380.07	1500.07
0	23496	2380.07	1400.07
0	23497	2380.07	1300.07
0	23659	2390.07	2200.07
0	23660	2390.07	2100.07
0	23661	2390.07	2000.07
0	23662	2390.07	1900.07
0	23663	2390.07	1800.07
0	23664	2390.07	1700.07
0	23665	2390.07	1600.07
0	23666	2390.07	1500.07
0	23667	2390.07	1400.07
0	23668	2390.07	2200.07
0	23669	2390.07	2100.07
0	23670	2390.07	2000.07
0	23671	2390.07	1900.07
0	23672	2390.07	1800.07
0	23673	2390.07	1700.07
0	23674	2390.07	1600.07
0	23675	2390.07	1500.07
0	23676	2390.07	1400.07
0	23677	2390.07	1300.07
0	23839	2400.07	2200.07
0	23840	2400.07	2100.07
0	23841	2400.07	2000.07
0	23842	2400.07	1900.07
0	23843	2400.07	1800.07
0	23844	2400.07	1700.07
0	23845	2400.07	1600.07
0	23846	2400.07	1500.07
0	23847	2400.07	1400.07
0	23848	2400.07	2200.07
0	23849	2400.07	2100.07
0	23850	2400.07	2000.07
0	23851	2400.07	1900.07
0	23852	2400.07	1800.07
0	23853	2400.07	1700.07
0	23854	2400.07	1600.07
0	23855	2400.07	1500.07
0	23856	2400.07	1400.07
0	23857	2400.07	1300.07
0	24019	2410.07	2200.07
0	24020	2410.07	2100.07
0	24021	2410.07	2000.07
0	24022	2410.07	1900.07
0	24023	2410.07	1800.07
0	24024	2410.07	1700.07
0	24025	2410.07	1600.07
0	24026	2410.07	1500.07
0	24027	2410.07	1400.07
0	24028	2410.07	2200.07
0	24029	2410.07	2100.07
0	24030	2410.07	2000.07
0	24031	2410.07	1900.07
0	24032	2410.07	1800.07
0	24033	2410.07	1700.07
0	24034	2410.07	1600.07
0	24035	2410.07	1500.07
0	24036	2410.07	1400.07
0	24037	2410.07	1300.07
0	24199	2420.07	2200.07
0	24200	2420.07	2100.07
0	24201	2420.07	2000.07
0	24202	2420.07	1900.07
0	24203	2420.07	1800.07
0	24204	2420.07	1700.07
0	24205	2420.07	1600.07
0	24206	2420.07	1500.07
0	24207	2420.07	1400.07
0	24208	2420.07	2200.07
0	24209	2420.07	2100.07
0	24210	2420.07	2000.07
0	24211	2420.07	1900.07
0	24212	2420.07	1800.07
0	24213	2420.07	1700.07
0	24214	2420.07	1600.07
0	24215	2420.07	1500.07
0	24216	2420.07	1400.07
0	24217	2420.07	1300.07
0	24379	2430.07	2200.07
0	24380	2430.07	2100.07
0	24381	2430.07	2000.07
0	24382	2430.07	1900.07
0	24383	2430.07	1800.07
0	24384	2430.07	1700.07
0	24385	2430.07	1600.07
0	24386	2430.07	1500.07
0	24387	2430.07	1400.07
0	24388	2430.07	2200.07
0	24389	2430.07	2100.07
0	24390	2430.07	2000.07
0	24391	2430.07	1900.07
0	24392	2430.07	1800.07
0	24393	2430.07	1700.07
0	24394	2430.07	1600.07
0	24395	2430.07	1500.07
0	24396	2430.07	1400.07
0	24397	2430.07	1300.07
0	24559	2440.07	2200.07
0	24560	2440.07	2100.07
0	24561	2440.07	2000.07
0	24562	2440.07	1900.07
0	24563	2440.07	1800.07
0	24564	2440.07	1700.07
0	24565	2440.07	1600.07
0	24566	2440.07	1500.07
0	24567	2440.07	1400.07
0	24568	2440.07	2200.07
0	24569	2440.07	2100.07
0	24570	2440.07	2000.07
0	24571	2440.07	1900.07
0	24572	2440.07	1800.07
0	24573	2440.07	1700.07
0	24574	2440.07	1600.07
0	24575	2440.07	1500.07
0	24576	2440.07	1400.07
0	24577	2440.07	1300.07
0	24739	2450.07	2200.07
0	24740	2450.07	2100.07
0	24741	2450.07	2000.07
0	24742	2450.07	1900.07
0	24743	2450.07	1800.07
0	24744	2450.07	1700.07
0	24745	2450.07	1600.07
0	24746	2450.07	1500.07
0	24747	2450.07	1400.07
0	24748	2450.07	2200.07
0	24749	2450.07	2100.07
0	24750	2450.07	2000.07
0	24751	2450.07	1900.07
0	24752	2450.07	1800.07
0	24753	2450.07	1700.07
0	24754	2450.07	1600.07
0	24755	2450.07	1500.07
0	24756	2450.07	1400.07
0	24757	2450.07	1300.07
0	25003	2458.07	2458.07
0	25004	2458.07	2448.07
0	25005	2458.07	2438.07
0	25006	2458.07	2428.07
0	25007	2458.07	2418.07
0	25008	2458.07	2408.07
0	25009	2458.07	2398.07
0	25010	2458.07	2388.07
0	25011	2458.07	2378.07
0	25012	2458.07	2368.07
0	25013	2458.07	2358.07
0	25014	2458.07	2348.07
0	25015	2458.07	2338.07
0	25016	2458.07	2328.07
0	25017	2458.07	2318.07
0	25018	2458.07	2308.07
0	25019	2458.07	2458.07
0	25020	2458.07	2448.07
0	25021	2458.07	2438.07
0	25022	2458.07	2428.07
0	25023	2458.07	2418.07
0	25024	2458.07	2408.07
0	25025	2458.07	2398.07
0	25026	2458.07	2388.07
0	25027	2458.07	2378.07
0	25028	2458.07	2368.07
0	25029	2458.07	2358.07
0	25030	2458.07	2348.07
0	25031	2458.07	2338.07
0	25032	2458.07	2328.07
0	25033	2458.07	2318.07
0	25034	2458.07	2308.07
0	25193	2460.07	2300.07
0	25194	2460.07	2200.07
0	25195	2460.07	2100.07
0	25196	2460.07	2000.07
0	25197	2460.07	1900.07
0	25198	2460.07	1800.07
0	25199	2460.07	1700.07
0	25200	2460.07	1600.07
0	25201	2460.07	1500.07
0	25202	2460.07	1400.07
0	25203	2460.07	2300.07
0	25204	2460.07	2200.07
0	25205	2460.07	2100.07
0	25206	2460.07	2000.07
0	25207	2460.07	1900.07
0	25208	2460.07	1800.07
0	25209	2460.07	1700.07
0	25210	2460.07	1600.07
0	25211	2460.07	1500.07
0	25212	2460.07	1400.07
0	25213	2460.07	1300.07
0	25389	2470.07	2300.07
0	25390	2470.07	2200.07
0	25391	2470.07	2100.07
0	25392	2470.07	2000.07
0	25393	2470.07	1900.07
0	25394	2470.07	1800.07
0	25395	2470.07	1700.07
0	25396	2470.07	1600.07
0	25397	2470.07	1500.07
0	25398	2470.07	1400.07
0	25399	2470.07	2300.07
0	25400	2470.07	2200.07
0	25401	2470.07	2100.07
0	25402	2470.07	2000.07
0	25403	2470.07	1900.07
0	25404	2470.07	1800.07
0	25405	2470.07	1700.07
0	25406	2470.07	1600.07
0	25407	2470.07	1500.07
0	25408	2470.07	1400.07
0	25409	2470.07	1300.07
0	25585	2480.07	2300.07
0	25586	2480.07	2200.07
0	25587	2480.07	2100.07
0	25588	2480.07	2000.07
0	25589	2480.07	1900.07
0	25590	2480.07	1800.07
0	25591	2480.07	1700.07
0	25592	2480.07	1600.07
0	25593	2480.07	1500.07
0	25594	2480.07	1400.07
0	25595	2480.07	2300.07
0	25596	2480.07	2200.07
0	25597	2480.07	2100.07
0	25598	2480.07	2000.07
0	25599	2480.07	1900.07
0	25600	2480.07	1800.07
0	25601	2480.07	1700.07
0	25602	2480.07	1600.07
0	25603	2480.07	1500.07
0	25604	2480.07	1400.07
0	25605	2480.07	1300.07
0	25781	2490.07	2300.07
0	25782	2490.07	2200.07
0	25783	2490.07	2100.07
0	25784	2490.07	2000.07
0	25785	2490.07	1900.07
0	25786	2490.07	1800.07
0	25787	2490.07	1700.07
0	25788	2490.07	1600.07
0	25789	2490.07	1500.07
0	25790	2490.07	1400.07
0	25791	2490.07	2300.07
0	25792	2490.07	2200.07
0	25793	2490.07	2100.07
0	25794	2490.07	2000.07
0	25795	2490.07	1900.07
0	25796	2490.07	1800.07
0	25797	2490.07	1700.07
0	25798	2490.07	1600.07
0	25799	2490.07	1500.07
0	25800	2490.07	1400.07
0	25801	2490.07	1300.07
0	25977	2500.07	2300.07
0	25978	2500.07	2200.07
0	25979	2500.07	2100.07
0	25980	2500.07	2000.07
0	25981	2500.07	1900.07
0	25982	2500.07	1800.07
0	25983	2500.07	1700.07
0	25984	2500.07	1600.07
0	25985	2500.07	1500.07
0	25986	2500.07	1400.07
0	25987	2500.07	2300.07
0	25988	2500.07	2200.07
0	25989	2500.07	2100.07
0	25990	2500.07	2000.07
0	25991	2500.07	1900.07
0	25992	2500.07	1800.07
0	25993	2500.07	1700.07
0	25994	2500.07	1600.07
0	25995	2500.07	1500.07
0	25996	2500.07	1400.07
0	25997	2500.07	1300.07
0	26173	2510.07	2300.07
0	26174	2510.07	2200.07
0	26175	2510.07	2100.07
0	26176	2510.07	2000.07
0	26177	2510.07	1900.07
0	26178	2510.07	1800.07
0	26179	2510.07	1700.07
0	26180	2510.07	1600.07
0	26181	2510.07	1500.07
0	26182	2510.07	1400.07
0	26183	2510.07	2300.07
0	26184	2510.07	2200.07
0	26185	2510.07	2100.07
0	26186	2510.07	2000.07
0	26187	2510.07	1900.07
0	26188	2510.07	1800.07
0	26189	2510.07	1700.07
0	26190	2510.07	1600.07
0	26191	2510.07	1500.07
0	26192	2510.07	1400.07
0	26193	2510.07	1300.07
0	26369	2520.07	2300.07
0	26370	2520.07	2200.07
0	26371	2520.07	2100.07
0	26372	2520.07	2000.07
0	26373	2520.07	1900.07
0	26374	2520.07	1800.07
0	26375	2520.07	1700.07
0	26376	2520.07	1600.07
0	26377	2520.07	1500.07
0	26378	2520.07	1400.07
0	26379	2520.07	2300.07
0	26380	2520.07	2200.07
0	26381	2520.07	2100.07
0	26382	2520.07	2000.07
0	26383	2520.07	1900.07
0	26384	2520.07	1800.07
0	26385	2520.07	1700.07
0	26386	2520.07	1600.07
0	26387	2520.07	1500.07
0	26388	2520.07	1400.07
0	26389	2520.07	1300.07
0	26565	2530.07	2300.07
0	26566	2530.07	2200.07
0	26567	2530.07	2100.07
0	26568	2530.07	2000.07
0	26569	2530.07	1900.07
0	26570	2530.07	1800.07
0	26571	2530.07	1700.07
0	26572	2530.07	1600.07
0	26573	2530.07	1500.07
0	26574	2530.07	1400.07
0	26575	2530.07	2300.07
0	26576	2530.07	2200.07
0	26577	2530.07	2100.07
0	26578	2530.07	2000.07
0	26579	2530.07	1900.07
0	26580	2530.07	1800.07
0	26581	2530.07	1700.07
0	26582	2530.07	1600.07
0	26583	2530.07	1500.07
0	26584	2530.07	1400.07
0	26585	2530.07	1300.07
0	26761	2540.07	2300.07
0	26762	2540.07	2200.07
0	26763	2540.07	2100.07
0	26764	2540.07	2000.07
0	26765	2540.07	1900.07
0	26766	2540.07	1800.07
0	26767	2540.07	1700.07
0	26768	2540.07	1600.07
0	26769	2540.07	1500.07
0	26770	2540.07	1400.07
0	26771	2540.07	2300.07
0	26772	2540.07	2200.07
0	26773	2540.07	2100.07
0	26774	2540.07	2000.07
0	26775	2540.07	1900.07
0	26776	2540.07	1800.07
0	26777	2540.07	1700.07
0	26778	2540.07	1600.07
0	26779	2540.07	1500.07
0	26780	2540.07	1400.07
0	26781	2540.07	1300.07
0	26957	2550.07	2300.07
0	26958	2550.07	2200.07
0	26959	2550.07	2100.07
0	26960	2550.07	2000.07
0	26961	2550.07	1900.07
0	26962	2550.07	1800.07
0	26963	2550.07	1700.07
0	26964	2550.07	1600.07
0	26965	2550.07	1500.07
0	26966	2550.07	1400.07
0	26967	2550.07	2300.07
0	26968	2550.07	2200.07
0	26969	2550.07	2100.07
0	26970	2550.07	2000.07
0	26971	2550.07	1900.07
0	26972	2550.07	1800.07
0	26973	2550.07	1700.07
0	26974	2550.07	1600.07
0	26975	2550.07	1500.07
0	26976	2550.07	1400.07
0	26977	2550.07	1300.07
0	27223	2558.07	2558.07
0	27224	2558.07	2548.07
0	27225	2558.07	2538.07
0	27226	2558.07	2528.07
0	27227	2558.07	2518.07
0	27228	2558.07	2508.07
0	27229	2558.07	2498.07
0	27230	2558.07	2488.07
0	27231	2558.07	2478.07
0	27232	2558.07	2468.07
0	27233	2558.07	2458.07
0	27234	2558.07	2448.07
0	27235	2558.07	2438.07
0	27236	2558.07	2428.07
0	27237	2558.07	2418.07
0	27238	2558.07	2408.07
0	27239	2558.07	2558.07
0	27240	2558.07	2548.07
0	27241	2558.07	2538.07
0	27242	2558.07	2528.07
0	27243	2558.07	2518.07
0	27244	2558.07	2508.07
0	27245	2558.07	2498.07
0	27246	2558.07	2488.07
0	27247	2558.07	2478.07
0	27248	2558.07	2468.07
0	27249	2558.07	2458.07
0	27250	2558.07	2448.07
0	27251	2558.07	2438.07
0	27252	2558.07	2428.07
0	27253	2558.07	2418.07
0	27254	2558.07	2408.07
0	27427	2560.07	2400.07
0	27428	2560.07	2300.07
0	27429	2560.07	2200.07
0	27430	2560.07	2100.07
0	27431	2560.07	2000.07
0	27432	2560.07	1900.07
0	27433	2560.07	1800.07
0	27434	2560.07	1700.07
0	27435	2560.07	1600.07
0	27436	2560.07	1500.07
0	27437	2560.07	1400.07
0	27438	2560.07	2400.07
0	27439	2560.07	2300.07
0	27440	2560.07	2200.07
0	27441	2560.07	2100.07
0	27442	2560.07	2000.07
0	27443	2560.07	1900.07
0	27444	2560.07	1800.07
0	27445	2560.07	1700.07
0	27446	2560.07	1600.07
0	27447	2560.07	1500.07
0	27448	2560.07	1400.07
0	27449	2560.07	1300.07
0	27639	2570.07	2400.07
0	27640	2570.07	2300.07
0	27641	2570.07	2200.07
0	27642	2570.07	2100.07
0	27643	2570.07	2000.07
0	27644	2570.07	1900.07
0	27645	2570.07	1800.07
0	27646	2570.07	1700.07
0	27647	2570.07	1600.07
0	27648	2570.07	1500.07
0	27649	2570.07	1400.07
0	27650	2570.07	2400.07
0	27651	2570.07	2300.07
0	27652	2570.07	2200.07
0	27653	2570.07	2100.07
0	27654	2570.07	2000.07
0	27655	2570.07	1900.07
0	27656	2570.07	1800.07
0	27657	2570.07	1700.07
0	27658	2570.07	1600.07
0	27659	2570.07	1500.07
0	27660	2570.07	1400.07
0	27661	2570.07	1300.07
0	27851	2580.07	2400.07
0	27852	2580.07	2300.07
0	27853	2580.07	2200.07
0	27854	2580.07	2100.07
0	27855	2580.07	2000.07
0	27856	2580.07	1900.07
0	27857	2580.07	1800.07
0	27858	2580.07	1700.07
0	27859	2580.07	1600.07
0	27860	2580.07	1500.07
0	27861	2580.07	1400.07
0	27862	2580.07	2400.07
0	27863	2580.07	2300.07
0	27864	2580.07	2200.07
0	27865	2580.07	2100.07
0	27866	2580.07	2000.07
0	27867	2580.07	1900.07
0	27868	2580.07	1800.07
0	27869	2580.07	1700.07
0	27870	2580.07	1600.07
0	27871	2580.07	1500.07
0	27872	2580.07	1400.07
0	27873	2580.07	1300.07
0	28063	2590.07	2400.07
0	28064	2590.07	2300.07
0	28065	2590.07	2200.07
0	28066	2590.07	2100.07
0	28067	2590.07	2000.07
0	28068	2590.07	1900.07
0	28069	2590.07	1800.07
0	28070	2590.07	1700.07
0	28071	2590.07	1600.07
0	28072	2590.07	1500.07
0	28073	2590.07	1400.07
0	28074	2590.07	2400.07
0	28075	2590.07	2300.07
0	28076	2590.07	2200.07
0	28077	2590.07	2100.07
0	28078	2590.07	2000.07
0	28079	2590.07	1900.07
0	28080	2590.07	1800.07
0	28081	2590.07	1700.07
0	28082	2590.07	1600.07
0	28083	2590.07	1500.07
0	28084	2590.07	1400.07
0	28085	2590.07	1300.07
0	28275	2600.07	2400.07
0	28276	2600.07	2300.07
0	28277	2600.07	2200.07
0	28278	2600.07	2100.07
0	28279	2600.07	2000.07
0	28280	2600.07	1900.07
0	28281	2600.07	1800.07
0	28282	2600.07	1700.07
0	28283	2600.07	1600.07
0	28284	2600.07	1500.07
0	28285	2600.07	1400.07
0	28286	2600.07	2400.07
0	28287	2600.07	2300.07
0	28288	2600.07	2200.07
0	28289	2600.07	2100.07
0	28290	2600.07	2000.07
0	28291	2600.07	1900.07
0	28292	2600.07	1800.07
0	28293	2600.07	1700.07
0	28294	2600.07	1600.07
0	28295	2600.07	1500.07
0	28296	2600.07	1400.07
0	28297	2600.07	1300.07
0	28487	2610.07	2400.07
0	28488	2610.07	2300.07
0	28489	2610.07	2200.07
0	28490	2610.07	2100.07
0	28491	2610.07	2000.07
0	28492	2610.07	1900.07
0	28493	2610.07	1800.07
0	28494	2610.07	1700.07
0	28495	2610.07	1600.07
0	28496	2610.07	1500.07
0	28497	2610.07	1400.07
0	28498	2610.07	2400.07
0	28499	2610.07	2300.07
0	28500	2610.07	2200.07
0	28501	2610.07	2100.07
0	28502	2610.07	2000.07
0	28503	2610.07	1900.07
0	28504	2610.07	1800.07
0	28505	2610.07	1700.07
0	28506	2610.07	1600.07
0	28507	2610.07	1500.07
0	28508	2610.07	1400.07
0	28509	2610.07	1300.07
0	28699	2620.07	2400.07
0	28700	2620.07	2300.07
0	28701	2620.07	2200.07
0	28702	2620.07	2100.07
0	28703	2620.07	2000.07
0	28704	2620.07	1900.07
0	28705	2620.07	1800.07
0	28706	2620.07	1700.07
0	28707	2620.07	1600.07
0	28708	2620.07	1500.07
0	28709	2620.07	1400.07
0	28710	2620.07	2400.07
0	28711	2620.07	2300.07
0	28712	2620.07	2200.07
0	28713	2620.07	2100.07
0	28714	2620.07	2000.07
0	28715	2620.07	1900.07
0	28716	2620.07	1800.07
0	28717	2620.07	1700.07
0	28718	2620.07	1600.07
0	28719	2620.07	1500.07
0	28720	2620.07	1400.07
0	28721	2620.07	1300.07
0	28911	2630.07	2400.07
0	28912	2630.07	2300.07
0	28913	2630.07	2200.07
0	28914	2630.07	2100.07
0	28915	2630.07	2000.07
0	28916	2630.07	1900.07
0	28917	2630.07	1800.07
0	28918	2630.07	1700.07
0	28919	2630.07	1600.07
0	28920	2630.07	1500.07
0	28921	2630.07	1400.07
0	28922	2630.07	2400.07
0	28923	2630.07	2300.07
0	28924	2630.07	2200.07
0	28925	2630.07	2100.07
0	28926	2630.07	2000.07
0	28927	2630.07	1900.07
0	28928	2630.07	1800.07
0	28929	2630.07	1700.07
0	28930	2630.07	1600.07
0	28931	2630.07	1500.07
0	28932	2630.07	1400.07
0	28933	2630.07	1300.07
0	29123	2640.07	2400.07
0	29124	2640.07	2300.07
0	29125	2640.07	2200.07
0	29126	2640.07	2100.07
0	29127	2640.07	2000.07
0	29128	2640.07	1900.07
0	29129	2640.07	1800.07
0	29130	2640.07	1700.07
0	29131	2640.07	1600.07
0	29132	2640.07	1500.07
0	29133	2640.07	1400.07
0	29134	2640.07	2400.07
0	29135	2640.07	2300.07
0	29136	2640.07	2200.07
0	29137	2640.07	2100.07
0	29138	2640.07	2000.07
0	29139	2640.07	1900.07
0	29140	2640.07	1800.07
0	29141	2640.07	1700.07
0	29142	2640.07	1600.07
0	29143	2640.07	1500.07
0	29144	2640.07	1400.07
0	29145	2640.07	1300.07
0	29335	2650.07	2400.07
0	29336	2650.07	2300.07
0	29337	2650.07	2200.07
0	29338	2650.07	2100.07
0	29339	2650.07	2000.07
0	29340	2650.07	1900.07
0	29341	2650.07	1800.07
0	29342	2650.07	1700.07
0	29343	2650.07	1600.07
0	29344	2650.07	1500.07
0	29345	2650.07	1400.07
0	29346	2650.07	2400.07
0	29347	2650.07	2300.07
0	29348	2650.07	2200.07
0	29349	2650.07	2100.07
0	29350	2650.07	2000.07
0	29351	2650.07	1900.07
0	29352	2650.07	1800.07
0	29353	2650.07	1700.07
0	29354	2650.07	1600.07
0	29355	2650.07	1500.07
0	29356	2650.07	1400.07
0	29357	2650.07	1300.07
0	29603	2658.07	2658.07
0	29604	2658.07	2648.07
0	29605	2658.07	2638.07
0	29606	2658.07	2628.07
0	29607	2658.07	2618.07
0	29608	2658.07	2608.07
0	29609	2658.07	2598.07
0	29610	2658.07	2588.07
0	29611	2658.07	2578.07
0	29612	2658.07	2568.07
0	29613	2658.07	2558.07
0	29614	2658.07	2548.07
0	29615	2658.07	2538.07
0	29616	2658.07	2528.07
0	29617	2658.07	2518.07
0	29618	2658.07	2508.07
0	29619	2658.07	2658.07
0	29620	2658.07	2648.07
0	29621	2658.07	2638.07
0	29622	2658.07	2628.07
0	29623	2658.07	2618.07
0	29624	2658.07	2608.07
0	29625	2658.07	2598.07
0	29626	2658.07	2588.07
0	29627	2658.07	2578.07
0	29628	2658.07	2568.07
0	29629	2658.07	2558.07
0	29630	2658.07	2548.07
0	29631	2658.07	2538.07
0	29632	2658.07	2528.07
0	29633	2658.07	2518.07
0	29634	2658.07	2508.07
0	29821	2660.07	2500.07
0	29822	2660.07	2400.07
0	29823	2660.07	2300.07
0	29824	2660.07	2200.07
0	29825	2660.07	2100.07
0	29826	2660.07	2000.07
0	29827	2660.07	1900.07
0	29828	2660.07	1800.07
0	29829	2660.07	1700.07
0	29830	2660.07	1600.07
0	29831	2660.07	1500.07
0	29832	2660.07	1400.07
0	29833	2660.07	2500.07
0	29834	2660.07	2400.07
0	29835	2660.07	2300.07
0	29836	2660.07	2200.07
0	29837	2660.07	2100.07
0	29838	2660.07	2000.07
0	29839	2660.07	1900.07
0	29840	2660.07	1800.07
0	29841	2660.07	1700.07
0	29842	2660.07	1600.07
0	29843	2660.07	1500.07
0	29844	2660.07	1400.07
0	29845	2660.07	1300.07
0	30049	2670.07	2500.07
0	30050	2670.07	2400.07
0	30051	2670.07	2300.07
0	30052	2670.07	2200.07
0	30053	2670.07	2100.07
0	30054	2670.07	2000.07
0	30055	2670.07	1900.07
0	30056	2670.07	1800.07
0	30057	2670.07	1700.07
0	30058	2670.07	1600.07
0	30059	2670.07	1500.07
0	30060	2670.07	1400.07
0	30061	2670.07	2500.07
0	30062	2670.07	2400.07
0	30063	2670.07	2300.07
0	30064	2670.07	2200.07
0	30065	2670.07	2100.07
0	30066	2670.07	2000.07
0	30067	2670.07	1900.07
0	30068	2670.07	1800.07
0	30069	2670.07	1700.07
0	30070	2670.07	1600.07
0	30071	2670.07	1500.07
0	30072	2670.07	1400.07
0	30073	2670.07	1300.07
0	30277	2680.07	2500.07
0	30278	2680.07	2400.07
0	30279	2680.07	2300.07
0	30280	2680.07	2200.07
0	30281	2680.07	2100.07
0	30282	2680.07	2000.07
0	30283	2680.07	1900.07
0	30284	2680.07	1800.07
0	30285	2680.07	1700.07
0	30286	2680.07	1600.07
0	30287	2680.07	1500.07
0	30288	2680.07	1400.07
0	30289	2680.07	2500.07
0	30290	2680.07	2400.07
0	30291	2680.07	2300.07
0	30292	2680.07	2200.07
0	30293	2680.07	2100.07
0	30294	2680.07	2000.07
0	30295	2680.07	1900.07
0	30296	2680.07	1800.07
0	30297	2680.07	1700.07
0	30298	2680.07	1600.07
0	30299	2680.07	1500.07
0	30300	2680.07	1400.07
0	30301	2680.07	1300.07
0	30505	2690.07	2500.07
0	30506	2690.07	2400.07
0	30507	2690.07	2300.07
0	30508	2690.07	2200.07
0	30509	2690.07	2100.07
0	30510	2690.07	2000.07
0	30511	2690.07	1900.07
0	30512	2690.07	1800.07
0	30513	2690.07	1700.07
0	30514	2690.07	1600.07
0	30515	2690.07	1500.07
0	30516	2690.07	1400.07
0	30517	2690.07	2500.07
0	30518	2690.07	2400.07
0	30519	2690.07	2300.07
0	30520	2690.07	2200.07
0	30521	2690.07	2100.07
0	30522	2690.07	2000.07
0	30523	2690.07	1900.07
0	30524	2690.07	1800.07
0	30525	2690.07	1700.07
0	30526	2690.07	1600.07
0	30527	2690.07	1500.07
0	30528	2690.07	1400.07
0	30529	2690.07	1300.07
0	30733	2700.07	2500.07
0	30734	2700.07	2400.07
0	30735	2700.07	2300.07
0	30736	2700.07	2200.07
0	30737	2700.07	2100.07
0	30738	2700.07	2000.07
0	30739	2700.07	1900.07
0	30740	2700.07	1800.07
0	30741	2700.07	1700.07
0	30742	2700.07	1600.07
0	30743	2700.07	1500.07
0	30744	2700.07	1400.07
0	30745	2700.07	2500.07
0	30746	2700.07	2400.07
0	30747	2700.07	2300.07
0	30748	2700.07	2200.07
0	30749	2700.07	2100.07
0	30750	2700.07	2000.07
0	30751	2700.07	1900.07
0	30752	2700.07	1800.07
0	30753	2700.07	1700.07
0	30754	2700.07	1600.07
0	30755	2700.07	1500.07
0	30756	2700.07	1400.07
0	30757	2700.07	1300.07
0	30961	2710.07	2500.07
0	30962	2710.07	2400.07
0	30963	2710.07	2300.07
0	30964	2710.07	2200.07
0	30965	2710.07	2100.07
0	30966	2710.07	2000.07
0	30967	2710.07	1900.07
0	30968	2710.07	1800.07
0	30969	2710.07	1700.07
0	30970	2710.07	1600.07
0	30971	2710.07	1500.07
0	30972	2710.07	1400.07
0	30973	2710.07	2500.07
0	30974	2710.07	2400.07
0	30975	2710.07	2300.07
0	30976	2710.07	2200.07
0	30977	2710.07	2100.07
0	30978	2710.07	2000.07
0	30979	2710.07	1900.07
0	30980	2710.07	1800.07
0	30981	2710.07	1700.07
0	30982	2710.07	1600.07
0	30983	2710.07	1500.07
0	30984	2710.07	1400.07
0	30985	2710.07	1300.07
0	31189	2720.07	2500.07
0	31190	2720.07	2400.07
0	31191	2720.07	2300.07
0	31192	2720.07	2200.07
0	31193	2720.07	2100.07
0	31194	2720.07	2000.07
0	31195	2720.07	1900.07
0	31196	2720.07	1800.07
0	31197	2720.07	1700.07
0	31198	2720.07	1600.07
0	31199	2720.07	1500.07
0	31200	2720.07	1400.07
0	31201	2720.07	2500.07
0	31202	2720.07	2400.07
0	31203	2720.07	2300.07
0	31204	2720.07	2200.07
0	31205	2720.07	2100.07
0	31206	2720.07	2000.07
0	31207	2720.07	1900.07
0	31208	2720.07	1800.07
0	31209	2720.07	1700.07
0	31210	2720.07	1600.07
0	31211	2720.07	1500.07
0	31212	2720.07	1400.07
0	31213	2720.07	1300.07
0	31417	2730.07	2500.07
0	31418	2730.07	2400.07
0	31419	2730.07	2300.07
0	31420	2730.07	2200.07
0	31421	2730.07	2100.07
0	31422	2730.07	2000.07
0	31423	2730.07	1900.07
0	31424	2730.07	1800.07
0	31425	2730.07	1700.07
0	31426	2730.07	1600.07
0	31427	2730.07	1500.07
0	31428	2730.07	1400.07
0	31429	2730.07	2500.07
0	31430	2730.07	2400.07
0	31431	2730.07	2300.07
0	31432	2730.07	2200.07
0	31433	2730.07	2100.07
0	31434	2730.07	2000.07
0	31435	2730.07	1900.07
0	31436	2730.07	1800.07
0	31437	2730.07	1700.07
0	31438	2730.07	1600.07
0	31439	2730.07	1500.07
0	31440	2730.07	1400.07
0	31441	2730.07	1300.07
0	31645	2740.07	2500.07
0	31646	2740.07	2400.07
0	31647	2740.07	2300.07
0	31648	2740.07	2200.07
0	31649	2740.07	2100.07
0	31650	2740.07	2000.07
0	31651	2740.07	1900.07
0	31652	2740.07	1800.07
0	31653	2740.07	1700.07
0	31654	2740.07	1600.07
0	31655	2740.07	1500.07
0	31656	2740.07	1400.07
0	31657	2740.07	2500.07
0	31658	2740.07	2400.07
0	31659	2740.07	2300.07
0	31660	2740.07	2200.07
0	31661	2740.07	2100.07
0	31662	2740.07	2000.07
0	31663	2740.07	1900.07
0	31664	2740.07	1800.07
0	31665	2740.07	1700.07
0	31666	2740.07	1600.07
0	31667	2740.07	1500.07
0	31668	2740.07	1400.07
0	31669	2740.07	1300.07
0	31873	2750.07	2500.07
0	31874	2750.07	2400.07
0	31875	2750.07	2300.07
0	31876	2750.07	2200.07
0	31877	2750.07	2100.07
0	31878	2750.07	2000.07
0	31879	2750.07	1900.07
0	31880	2750.07	1800.07
0	31881	2750.07	1700.07
0	31882	2750.07	1600.07
0	31883	2750.07	1500.07
0	31884	2750.07	1400.07
0	31885	2750.07	2500.07
0	31886	2750.07	2400.07
0	31887	2750.07	2300.07
0	31888	2750.07	2200.07
0	31889	2750.07	2100.07
0	31890	2750.07	2000.07
0	31891	2750.07	1900.07
0	31892	2750.07	1800.07
0	31893	2750.07	1700.07
0	31894	2750.07	1600.07
0	31895	2750.07	1500.07
0	31896	2750.07	1400.07
0	31897	2750.07	1300.07
0	32143	2758.07	2758.07
0	32144	2758.07	2748.07
0	32145	2758.07	2738.07
0	32146	2758.07	2728.07
0	32147	2758.07	2718.07
0	32148	2758.07	2708.07
0	32149	2758.07	2698.07
0	32150	2758.07	2688.07
0	32151	2758.07	2678.07
0	32152	2758.07	2668.07
0	32153	2758.07	2658.07
0	32154	2758.07	2648.07
0	32155	2758.07	2638.07
0	32156	2758.07	2628.07
0	32157	2758.07	2618.07
0	32158	2758.07	2608.07
0	32159	2758.07	2758.07
0	32160	2758.07	2748.07
0	32161	2758.07	2738.07
0	32162	2758.07	2728.07
0	32163	2758.07	2718.07
0	32164	2758.07	2708.07
0	32165	2758.07	2698.07
0	32166	2758.07	2688.07
0	32167	2758.07	2678.07
0	32168	2758.07	2668.07
0	32169	2758.07	2658.07
0	32170	2758.07	2648.07
0	32171	2758.07	2638.07
0	32172	2758.07	2628.07
0	32173	2758.07	2618.07
0	32174	2758.07	2608.07
0	32375	2760.07	2600.07
0	32376	2760.07	2500.07
0	32377	2760.07	2400.07
0	32378	2760.07	2300.07
0	32379	2760.07	2200.07
0	32380	2760.07	2100.07
0	32381	2760.07	2000.07
0	32382	2760.07	1900.07
0	32383	2760.07	1800.07
0	32384	2760.07	1700.07
0	32385	2760.07	1600.07
0	32386	2760.07	1500.07
0	32387	2760.07	1400.07
0	32388	2760.07	2600.07
0	32389	2760.07	2500.07
0	32390	2760.07	2400.07
0	32391	2760.07	2300.07
0	32392	2760.07	2200.07
0	32393	2760.07	2100.07
0	32394	2760.07	2000.07
0	32395	2760.07	1900.07
0	32396	2760.07	1800.07
0	32397	2760.07	1700.07
0	32398	2760.07	1600.07
0	32399	2760.07	1500.07
0	32400	2760.07	1400.07
0	32401	2760.07	1300.07
0	32619	2770.07	2600.07
0	32620	2770.07	2500.07
0	32621	2770.07	2400.07
0	32622	2770.07	2300.07
0	32623	2770.07	2200.07
0	32624	2770.07	2100.07
0	32625	2770.07	2000.07
0	32626	2770.07	1900.07
0	32627	2770.07	1800.07
0	32628	2770.07	1700.07
0	32629	2770.07	1600.07
0	32630	2770.07	1500.07
0	32631	2770.07	1400.07
0	32632	2770.07	2600.07
0	32633	2770.07	2500.07
0	32634	2770.07	2400.07
0	32635	2770.07	2300.07
0	32636	2770.07	2200.07
0	32637	2770.07	2100.07
0	32638	2770.07	2000.07
0	32639	2770.07	1900.07
0	32640	2770.07	1800.07
0	32641	2770.07	1700.07
0	32642	2770.07	1600.07
0	32643	2770.07	1500.07
0	32644	2770.07	1400.07
0	32645	2770.07	1300.07
0	32863	2780.07	2600.07
0	32864	2780.07	2500.07
0	32865	2780.07	2400.07
0	32866	2780.07	2300.07
0	32867	2780.07	2200.07
0	32868	2780.07	2100.07
0	32869	2780.07	2000.07
0	32870	2780.07	1900.07
0	32871	2780.07	1800.07
0	32872	2780.07	1700.07
0	32873	2780.07	1600.07
0	32874	2780.07	1500.07
0	32875	2780.07	1400.07
0	32876	2780.07	2600.07
0	32877	2780.07	2500.07
0	32878	2780.07	2400.07
0	32879	2780.07	2300.07
0	32880	2780.07	2200.07
0	32881	2780.07	2100.07
0	32882	2780.07	2000.07
0	32883	2780.07	1900.07
0	32884	2780.07	1800.07
0	32885	2780.07	1700.07
0	32886	2780.07	1600.07
0	32887	2780.07	1500.07
0	32888	2780.07	1400.07
0	32889	2780.07	1300.07
0	33107	2790.07	2600.07
0	33108	2790.07	2500.07
0	33109	2790.07	2400.07
0	33110	2790.07	2300.07
0	33111	2790.07	2200.07
0	33112	2790.07	2100.07
0	33113	2790.07	2000.07
0	33114	2790.07	1900.07
0	33115	2790.07	1800.07
0	33116	2790.07	1700.07
0	33117	2790.07	1600.07
0	33118	2790.07	1500.07
0	33119	2790.07	1400.07
0	33120	2790.07	2600.07
0	33121	2790.07	2500.07
0	33122	2790.07	2400.07
0	33123	2790.07	2300.07
0	33124	2790.07	2200.07
0	33125	2790.07	2100.07
0	33126	2790.07	2000.07
0	33127	2790.07	1900.07
0	33128	2790.07	1800.07
0	33129	2790.07	1700.07
0	33130	2790.07	1600.07
0	33131	2790.07	1500.07
0	33132	2790.07	1400.07
0	33133	2790.07	1300.07
0	33351	2800.07	2600.07
0	33352	2800.07	2500.07
0	33353	2800.07	2400.07
0	33354	2800.07	2300.07
0	33355	2800.07	2200.07
0	33356	2800.07	2100.07
0	33357	2800.07	2000.07
0	33358	2800.07	1900.07
0	33359	2800.07	1800.07
0	33360	2800.07	1700.07
0	33361	2800.07	1600.07
0	33362	2800.07	1500.07
0	33363	2800.07	1400.07
0	33364	2800.07	2600.07
0	33365	2800.07	2500.07
0	33366	2800.07	2400.07
0	33367	2800.07	2300.07
0	33368	2800.07	2200.07
0	33369	2800.07	2100.07
0	33370	2800.07	2000.07
0	33371	2800.07	1900.07
0	33372	2800.07	1800.07
0	33373	2800.07	1700.07
0	33374	2800.07	1600.07
0	33375	2800.07	1500.07
0	33376	2800.07	1400.07
0	33377	2800.07	1300.07
0	33595	2810.07	2600.07
0	33596	2810.07	2500.07
0	33597	2810.07	2400.07
0	33598	2810.07	2300.07
0	33599	2810.07	2200.07
0	33600	2810.07	2100.07
0	33601	2810.07	2000.07
0	33602	2810.07	1900.07
0	33603	2810.07	1800.07
0	33604	2810.07	1700.07
0	33605	2810.07	1600.07
0	33606	2810.07	1500.07
0	33607	2810.07	1400.07
0	33608	2810.07	2600.07
0	33609	2810.07	2500.07
0	33610	2810.07	2400.07
0	33611	2810.07	2300.07
0	33612	2810.07	2200.07
0	33613	2810.07	2100.07
0	33614	2810.07	2000.07
0	33615	2810.07	1900.07
0	33616	2810.07	1800.07
0	33617	2810.07	1700.07
0	33618	2810.07	1600.07
0	33619	2810.07	1500.07
0	33620	2810.07	1400.07
0	33621	2810.07	1300.07
0	33839	2820.07	2600.07
0	33840	2820.07	2500.07
0	33841	2820.07	2400.07
0	33842	2820.07	2300.07
0	33843	2820.07	2200.07
0	33844	2820.07	2100.07
0	33845	2820.07	2000.07
0	33846	2820.07	1900.07
0	33847	2820.07	1800.07
0	33848	2820.07	1700.07
0	33849	2820.07	1600.07
0	33850	2820.07	1500.07
0	33851	2820.07	1400.07
0	33852	2820.07	2600.07
0	33853	2820.07	2500.07
0	33854	2820.07	2400.07
0	33855	2820.07	2300.07
0	33856	2820.07	2200.07
0	33857	2820.07	2100.07
0	33858	2820.07	2000.07
0	33859	2820.07	1900.07
0	33860	2820.07	1800.07
0	33861	2820.07	1700.07
0	33862	2820.07	1600.07
0	33863	2820.07	1500.07
0	33864	2820.07	1400.07
0	33865	2820.07	1300.07
0	34083	2830.07	2600.07
0	34084	2830.07	2500.07
0	34085	2830.07	2400.07
0	34086	2830.07	2300.07
0	34087	2830.07	2200.07
0	34088	2830.07	2100.07
0	34089	2830.07	2000.07
0	34090	2830.07	1900.07
0	34091	2830.07	1800.07
0	34092	2830.07	1700.07
0	34093	2830.07	1600.07
0	34094	2830.07	1500.07
0	34095	2830.07	1400.07
0	34096	2830.07	2600.07
0	34097	2830.07	2500.07
0	34098	2830.07	2400.07
0	34099	2830.07	2300.07
0	34100	2830.07	2200.07
0	34101	2830.07	2100.07
0	34102	2830.07	2000.07
0	34103	2830.07	1900.07
0	34104	2830.07	1800.07
0	34105	2830.07	1700.07
0	34106	2830.07	1600.07
0	34107	2830.07	1500.07
0	34108	2830.07	1400.07
0	34109	2830.07	1300.07
0	34327	2840.07	2600.07
0	34328	2840.07	2500.07
0	34329	2840.07	2400.07
0	34330	2840.07	2300.07
0	34331	2840.07	2200.07
0	34332	2840.07	2100.07
0	34333	2840.07	2000.07
0	34334	2840.07	1900.07
0	34335	2840.07	1800.07
0	34336	2840.07	1700.07
0	34337	2840.07	1600.07
0	34338	2840.07	1500.07
0	34339	2840.07	1400.07
0	34340	2840.07	2600.07
0	34341	2840.07	2500.07
0	34342	2840.07	2400.07
0	34343	2840.07	2300.07
0	34344	2840.07	2200.07
0	34345	2840.07	2100.07
0	34346	2840.07	2000.07
0	34347	2840.07	1900.07
0	34348	2840.07	1800.07
0	34349	2840.07	1700.07
0	34350	2840.07	1600.07
0	34351	2840.07	1500.07
0	34352	2840.07	1400.07
0	34353	2840.07	1300.07
0	34571	2850.07	2600.07
0	34572	2850.07	2500.07
0	34573	2850.07	2400.07
0	34574	2850.07	2300.07
0	34575	2850.07	2200.07
0	34576	2850.07	2100.07
0	34577	2850.07	2000.07
0	34578	2850.07	1900.07
0	34579	2850.07	1800.07
0	34580	2850.07	1700.07
0	34581	2850.07	1600.07
0	34582	2850.07	1500.07
0	34583	2850.07	1400.07
0	34584	2850.07	2600.07
0	34585	2850.07	2500.07
0	34586	2850.07	2400.07
0	34587	2850.07	2300.07
0	34588	2850.07	2200.07
0	34589	2850.07	2100.07
0	34590	2850.07	2000.07
0	34591	2850.07	1900.07
0	34592	2850.07	1800.07
0	34593	2850.07	1700.07
0	34594	2850.07	1600.07
0	34595	2850.07	1500.07
0	34596	2850.07	1400.07
0	34597	2850.07	1300.07
0	34843	2858.07	2858.07
0	34844	2858.07	2848.07
0	34845	2858.07	2838.07
0	34846	2858.07	2828.07
0	34847	2858.07	2818.07
0	34848	2858.07	2808.07
0	34849	2858.07	2798.07
0	34850	2858.07	2788.07
0	34851	2858.07	2778.07
0	34852	2858.07	2768.07
0	34853	2858.07	2758.07
0	34854	2858.07	2748.07
0	34855	2858.07	2738.07
0	34856	2858.07	2728.07
0	34857	2858.07	2718.07
0	34858	2858.07	2708.07
0	34859	2858.07	2858.07
0	34860	2858.07	2848.07
0	34861	2858.07	2838.07
0	34862	2858.07	2828.07
0	34863	2858.07	2818.07
0	34864	2858.07	2808.07
0	34865	2858.07	2798.07
0	34866	2858.07	2788.07
0	34867	2858.07	2778.07
0	34868	2858.07	2768.07
0	34869	2858.07	2758.07
0	34870	2858.07	2748.07
0	34871	2858.07	2738.07
0	34872	2858.07	2728.07
0	34873	2858.07	2718.07
0	34874	2858.07	2708.07
0	35089	2860.07	2700.07
0	35090	2860.07	2600.07
0	35091	2860.07	2500.07
0	35092	2860.07	2400.07
0	35093	2860.07	2300.07
0	35094	2860.07	2200.07
0	35095	2860.07	2100.07
0	35096	2860.07	2000.07
0	35097	2860.07	1900.07
0	35098	2860.07	1800.07
0	35099	2860.07	1700.07
0	35100	2860.07	1600.07
0	35101	2860.07	1500.07
0	35102	2860.07	1400.07
0	35103	2860.07	2700.07
0	35104	2860.07	2600.07
0	35105	2860.07	2500.07
0	35106	2860.07	2400.07
0	35107	2860.07	2300.07
0	35108	2860.07	2200.07
0	35109	2860.07	2100.07
0	35110	2860.07	2000.07
0	35111	2860.07	1900.07
0	35112	2860.07	1800.07
0	35113	2860.07	1700.07
0	35114	2860.07	1600.07
0	35115	2860.07	1500.07
0	35116	2860.07	1400.07
0	35117	2860.07	1300.07
0	35349	2870.07	2700.07
0	35350	2870.07	2600.07
0	35351	2870.07	2500.07
0	35352	2870.07	2400.07
0	35353	2870.07	2300.07
0	35354	2870.07	2200.07
0	35355	2870.07	2100.07
0	35356	2870.07	2000.07
0	35357	2870.07	1900.07
0	35358	2870.07	1800.07
0	35359	2870.07	1700.07
0	35360	2870.07	1600.07
0	35361	2870.07	1500.07
0	35362	2870.07	1400.07
0	35363	2870.07	2700.07
0	35364	2870.07	2600.07
0	35365	2870.07	2500.07
0	35366	2870.07	2400.07
0	35367	2870.07	2300.07
0	35368	2870.07	2200.07
0	35369	2870.07	2100.07
0	35370	2870.07	2000.07
0	35371	2870.07	1900.07
0	35372	2870.07	1800.07
0	35373	2870.07	1700.07
0	35374	2870.07	1600.07
0	35375	2870.07	1500.07
0	35376	2870.07	1400.07
0	35377	2870.07	1300.07
0	35609	2880.07	2700.07
0	35610	2880.07	2600.07
0	35611	2880.07	2500.07
0	35612	2880.07	2400.07
0	35613	2880.07	2300.07
0	35614	2880.07	2200.07
0	35615	2880.07	2100.07
0	35616	2880.07	2000.07
0	35617	2880.07	1900.07
0	35618	2880.07	1800.07
0	35619	2880.07	1700.07
0	35620	2880.07	1600.07
0	35621	2880.07	1500.07
0	35622	2880.07	1400.07
0	35623	2880.07	2700.07
0	35624	2880.07	2600.07
0	35625	2880.07	2500.07
0	35626	2880.07	2400.07
0	35627	2880.07	2300.07
0	35628	2880.07	2200.07
0	35629	2880.07	2100.07
0	35630	2880.07	2000.07
0	35631	2880.07	1900.07
0	35632	2880.07	1800.07
0	35633	2880.07	1700.07
0	35634	2880.07	1600.07
0	35635	2880.07	1500.07
0	35636	2880.07	1400.07
0	35637	2880.07	1300.07
0	35869	2890.07	2700.07
0	35870	2890.07	2600.07
0	35871	2890.07	2500.07
0	35872	2890.07	2400.07
0	35873	2890.07	2300.07
0	35874	2890.07	2200.07
0	35875	2890.07	2100.07
0	35876	2890.07	2000.07
0	35877	2890.07	1900.07
0	35878	2890.07	1800.07
0	35879	2890.07	1700.07
0	35880	2890.07	1600.07
0	35881	2890.07	1500.07
0	35882	2890.07	1400.07
0	35883	2890.07	2700.07
0	35884	2890.07	2600.07
0	35885	2890.07	2500.07
0	35886	2890.07	2400.07
0	35887	2890.07	2300.07
0	35888	2890.07	2200.07
0	35889	2890.07	2100.07
0	35890	2890.07	2000.07
0	35891	2890.07	1900.07
0	35892	2890.07	1800.07
0	35893	2890.07	1700.07
0	35894	2890.07	1600.07
0	35895	2890.07	1500.07
0	35896	2890.07	1400.07
0	35897	2890.07	1300.07
0	36129	2900.07	2700.07
0	36130	2900.07	2600.07
0	36131	2900.07	2500.07
0	36132	2900.07	2400.07
0	36133	2900.07	2300.07
0	36134	2900.07	2200.07
0	36135	2900.07	2100.07
0	36136	2900.07	2000.07
0	36137	2900.07	1900.07
0	36138	2900.07	1800.07
0	36139	2900.07	1700.07
0	36140	2900.07	1600.07
0	36141	2900.07	1500.07
0	36142	2900.07	1400.07
0	36143	2900.07	2700.07
0	36144	2900.07	2600.07
0	36145	2900.07	2500.07
0	36146	2900.07	2400.07
0	36147	2900.07	2300.07
0	36148	2900.07	2200.07
0	36149	2900.07	2100.07
0	36150	2900.07	2000.07
0	36151	2900.07	1900.07
0	36152	2900.07	1800.07
0	36153	2900.07	1700.07
0	36154	2900.07	1600.07
0	36155	2900.07	1500.07
0	36156	2900.07	1400.07
0	36157	2900.07	1300.07
0	36389	2910.07	2700.07
0	36390	2910.07	2600.07
0	36391	2910.07	2500.07
0	36392	2910.07	2400.07
0	36393	2910.07	2300.07
0	36394	2910.07	2200.07
0	36395	2910.07	2100.07
0	36396	2910.07	2000.07
0	36397	2910.07	1900.07
0	36398	2910.07	1800.07
0	36399	2910.07	1700.07
0	36400	2910.07	1600.07
0	36401	2910.07	1500.07
0	36402	2910.07	1400.07
0	36403	2910.07	2700.07
0	36404	2910.07	2600.07
0	36405	2910.07	2500.07
0	36406	2910.07	2400.07
0	36407	2910.07	2300.07
0	36408	2910.07	2200.07
0	36409	2910.07	2100.07
0	36410	2910.07	2000.07
0	36411	2910.07	1900.07
0	36412	2910.07	1800.07
0	36413	2910.07	1700.07
0	36414	2910.07	1600.07
0	36415	2910.07	1500.07
0	36416	2910.07	1400.07
0	36417	2910.07	1300.07
0	36649	2920.07	2700.07
0	36650	2920.07	2600.07
0	36651	2920.07	2500.07
0	36652	2920.07	2400.07
0	36653	2920.07	2300.07
0	36654	2920.07	2200.07
0	36655	2920.07	2100.07
0	36656	2920.07	2000.07
0	36657	2920.07	1900.07
0	36658	2920.07	1800.07
0	36659	2920.07	1700.07
0	36660	2920.07	1600.07
0	36661	2920.07	1500.07
0	36662	2920.07	1400.07
0	36663	2920.07	2700.07
0	36664	2920.07	2600.07
0	36665	2920.07	2500.07
0	36666	2920.07	2400.07
0	36667	2920.07	2300.07
0	36668	2920.07	2200.07
0	36669	2920.07	2100.07
0	36670	2920.07	2000.07
0	36671	2920.07	1900.07
0	36672	2920.07	1800.07
0	36673	2920.07	1700.07
0	36674	2920.07	1600.07
0	36675	2920.07	1500.07
0	36676	2920.07	1400.07
0	36677	2920.07	1300.07
0	36909	2930.07	2700.07
0	36910	2930.07	2600.07
0	36911	2930.07	2500.07
0	36912	2930.07	2400.07
0	36913	2930.07	2300.07
0	36914	2930.07	2200.07
0	36915	2930.07	2100.07
0	36916	2930.07	2000.07
0	36917	2930.07	1900.07
0	36918	2930.07	1800.07
0	36919	2930.07	1700.07
0	36920	2930.07	1600.07
0	36921	2930.07	1500.07
0	36922	2930.07	1400.07
0	36923	2930.07	2700.07
0	36924	2930.07	2600.07
0	36925	2930.07	2500.07
0	36926	2930.07	2400.07
0	36927	2930.07	2300.07
0	36928	2930.07	2200.07
0	36929	2930.07	2100.07
0	36930	2930.07	2000.07
0	36931	2930.07	1900.07
0	36932	2930.07	1800.07
0	36933	2930.07	1700.07
0	36934	2930.07	1600.07
0	36935	2930.07	1500.07
0	36936	2930.07	1400.07
0	36937	2930.07	1300.07
0	37169	2940.07	2700.07
0	37170	2940.07	2600.07
0	37171	2940.07	2500.07
0	37172	2940.07	2400.07
0	37173	2940.07	2300.07
0	37174	2940.07	2200.07
0	37175	2940.07	2100.07
0	37176	2940.07	2000.07
0	37177	2940.07	1900.07
0	37178	2940.07	1800.07
0	37179	2940.07	1700.07
0	37180	2940.07	1600.07
0	37181	2940.07	1500.07
0	37182	2940.07	1400.07
0	37183	2940.07	2700.07
0	37184	2940.07	2600.07
0	37185	2940.07	2500.07
0	37186	2940.07	2400.07
0	37187	2940.07	2300.07
0	37188	2940.07	2200.07
0	37189	2940.07	2100.07
0	37190	2940.07	2000.07
0	37191	2940.07	1900.07
0	37192	2940.07	1800.07
0	37193	2940.07	1700.07
0	37194	2940.07	1600.07
0	37195	2940.07	1500.07
0	37196	2940.07	1400.07
0	37197	2940.07	1300.07
0	37429	2950.07	2700.07
0	37430	2950.07	2600.07
0	37431	2950.07	2500.07
0	37432	2950.07	2400.07
0	37433	2950.07	2300.07
0	37434	2950.07	2200.07
0	37435	2950.07	2100.07
0	37436	2950.07	2000.07
0	37437	2950.07	1900.07
0	37438	2950.07	1800.07
0	37439	2950.07	1700.07
0	37440	2950.07	1600.07
0	37441	2950.07	1500.07
0	37442	2950.07	1400.07
0	37443	2950.07	2700.07
0	37444	2950.07	2600.07
0	37445	2950.07	2500.07
0	37446	2950.07	2400.07
0	37447	2950.07	2300.07
0	37448	2950.07	2200.07
0	37449	2950.07	2100.07
0	37450	2950.07	2000.07
0	37451	2950.07	1900.07
0	37452	2950.07	1800.07
0	37453	2950.07	1700.07
0	37454	2950.07	1600.07
0	37455	2950.07	1500.07
0	37456	2950.07	1400.07
0	37457	2950.07	1300.07
0	37703	2958.07	2958.07
0	37704	2958.07	2948.07
0	37705	2958.07	2938.07
0	37706	2958.07	2928.07
0	37707	2958.07	2918.07
0	37708	2958.07	2908.07
0	37709	2958.07	2898.07
0	37710	2958.07	2888.07
0	37711	2958.07	2878.07
0	37712	2958.07	2868.07
0	37713	2958.07	2858.07
0	37714	2958.07	2848.07
0	37715	2958.07	2838.07
0	37716	2958.07	2828.07
0	37717	2958.07	2818.07
0	37718	2958.07	2808.07
0	37719	2958.07	2958.07
0	37720	2958.07	2948.07
0	37721	2958.07	2938.07
0	37722	2958.07	2928.07
0	37723	2958.07	2918.07
0	37724	2958.07	2908.07
0	37725	2958.07	2898.07
0	37726	2958.07	2888.07
0	37727	2958.07	2878.07
0	37728	2958.07	2868.07
0	37729	2958.07	2858.07
0	37730	2958.07	2848.07
0	37731	2958.07	2838.07
0	37732	2958.07	2828.07
0	37733	2958.07	2818.07
0	37734	2958.07	2808.07
0	37963	2960.07	2800.07
0	37964	2960.07	2700.07
0	37965	2960.07	2600.07
0	37966	2960.07	2500.07
0	37967	2960.07	2400.07
0	37968	2960.07	2300.07
0	37969	2960.07	2200.07
0	37970	2960.07	2100.07
0	37971	2960.07	2000.07
0	37972	2960.07	1900.07
0	37973	2960.07	1800.07
0	37974	2960.07	1700.07
0	37975	2960.07	1600.07
0	37976	2960.07	1500.07
0	37977	2960.07	1400.07
0	37978	2960.07	2800.07
0	37979	2960.07	2700.07
0	37980	2960.07	2600.07
0	37981	2960.07	2500.07
0	37982	2960.07	2400.07
0	37983	2960.07	2300.07
0	37984	2960.07	2200.07
0	37985	2960.07	2100.07
0	37986	2960.07	2000.07
0	37987	2960.07	1900.07
0	37988	2960.07	1800.07
0	37989	2960.07	1700.07
0	37990	2960.07	1600.07
0	37991	2960.07	1500.07
0	37992	2960.07	1400.07
0	37993	2960.07	1300.07
0	38239	2970.07	2800.07
0	38240	2970.07	2700.07
0	38241	2970.07	2600.07
0	38242	2970.07	2500.07
0	38243	2970.07	2400.07
0	38244	2970.07	2300.07
0	38245	2970.07	2200.07
0	38246	2970.07	2100.07
0	38247	2970.07	2000.07
0	38248	2970.07	1900.07
0	38249	2970.07	1800.07
0	38250	2970.07	1700.07
0	38251	2970.07	1600.07
0	38252	2970.07	1500.07
0	38253	2970.07	1400.07
0	38254	2970.07	2800.07
0	38255	2970.07	2700.07
0	38256	2970.07	2600.07
0	38257	2970.07	2500.07
0	38258	2970.07	2400.07
0	38259	2970.07	2300.07
0	38260	2970.07	2200.07
0	38261	2970.07	2100.07
0	38262	2970.07	2000.07
0	38263	2970.07	1900.07
0	38264	2970.07	1800.07
0	38265	2970.07	1700.07
0	38266	2970.07	1600.07
0	38267	2970.07	1500.07
0	38268	2970.07	1400.07
0	38269	2970.07	1300.07
0	38515	2980.07	2800.07
0	38516	2980.07	2700.07
0	38517	2980.07	2600.07
0	38518	2980.07	2500.07
0	38519	2980.07	2400.07
0	38520	2980.07	2300.07
0	38521	2980.07	2200.07
0	38522	2980.07	2100.07
0	38523	2980.07	2000.07
0	38524	2980.07	1900.07
0	38525	2980.07	1800.07
0	38526	2980.07	1700.07
0	38527	2980.07	1600.07
0	38528	2980.07	1500.07
0	38529	2980.07	1400.07
0	38530	2980.07	2800.07
0	38531	2980.07	2700.07
0	38532	2980.07	2600.07
0	38533	2980.07	2500.07
0	38534	2980.07	2400.07
0	38535	2980.07	2300.07
0	38536	2980.07	2200.07
0	38537	2980.07	2100.07
0	38538	2980.07	2000.07
0	38539	2980.07	1900.07
0	38540	2980.07	1800.07
0	38541	2980.07	1700.07
0	38542	2980.07	1600.07
0	38543	2980.07	1500.07
0	38544	2980.07	1400.07
0	38545	2980.07	1300.07
0	38791	2990.07	2800.07
0	38792	2990.07	2700.07
0	38793	2990.07	2600.07
0	38794	2990.07	2500.07
0	38795	2990.07	2400.07
0	38796	2990.07	2300.07
0	38797	2990.07	2200.07
0	38798	2990.07	2100.07
0	38799	2990.07	2000.07
0	38800	2990.07	1900.07
0	38801	2990.07	1800.07
0	38802	2990.07	1700.07
0	38803	2990.07	1600.07
0	38804	2990.07	1500.07
0	38805	2990.07	1400.07
0	38806	2990.07	2800.07
0	38807	2990.07	2700.07
0	38808	2990.07	2600.07
0	38809	2990.07	2500.07
0	38810	2990.07	2400.07
0	38811	2990.07	2300.07
0	38812	2990.07	2200.07
0	38813	2990.07	2100.07
0	38814	2990.07	2000.07
0	38815	2990.07	1900.07
0	38816	2990.07	1800.07
0	38817	2990.07	1700.07
0	38818	2990.07	1600.07
0	38819	2990.07	1500.07
0	38820	2990.07	1400.07
0	38821	2990.07	1300.07
0	39067	3000.07	2800.07
0	39068	3000.07	2700.07
0	39069	3000.07	2600.07
0	39070	3000.07	2500.07
0	39071	3000.07	2400.07
0	39072	3000.07	2300.07
0	39073	3000.07	2200.07
0	39074	3000.07	2100.07
0	39075	3000.07	2000.07
0	39076	3000.07	1900.07
0	39077	3000.07	1800.07
0	39078	3000.07	1700.07
0	39079	3000.07	1600.07
0	39080	3000.07	1500.07
0	39081	3000.07	1400.07
0	39082	3000.07	2800.07
0	39083	3000.07	2700.07
0	39084	3000.07	2600.07
0	39085	3000.07	2500.07
0	39086	3000.07	2400.07
0	39087	3000.07	2300.07
0	39088	3000.07	2200.07
0	39089	3000.07	2100.07
0	39090	3000.07	2000.07
0	39091	3000.07	1900.07
0	39092	3000.07	1800.07
0	39093	3000.07	1700.07
0	39094	3000.07	1600.07
0	39095	3000.07	1500.07
0	39096	3000.07	1400.07
0	39097	3000.07	1300.07
0	39343	3010.07	2800.07
0	39344	3010.07	2700.07
0	39345	3010.07	2600.07
0	39346	3010.07	2500.07
0	39347	3010.07	2400.07
0	39348	3010.07	2300.07
0	39349	3010.07	2200.07
0	39350	3010.07	2100.07
0	39351	3010.07	2000.07
0	39352	3010.07	1900.07
0	39353	3010.07	1800.07
0	39354	3010.07	1700.07
0	39355	3010.07	1600.07
0	39356	3010.07	1500.07
0	39357	3010.07	1400.07
0	39358	3010.07	2800.07
0	39359	3010.07	2700.07
0	39360	3010.07	2600.07
0	39361	3010.07	2500.07
0	39362	3010.07	2400.07
0	39363	3010.07	2300.07
0	39364	3010.07	2200.07
0	39365	3010.07	2100.07
0	39366	3010.07	2000.07
0	39367	3010.07	1900.07
0	39368	3010.07	1800.07
0	39369	3010.07	1700.07
0	39370	3010.07	1600.07
0	39371	3010.07	1500.07
0	39372	3010.07	1400.07
0	39373	3010.07	1300.07
0	39619	3020.07	2800.07
0	39620	3020.07	2700.07
0	39621	3020.07	2600.07
0	39622	3020.07	2500.07
0	39623	3020.07	2400.07
0	39624	3020.07	2300.07
0	39625	3020.07	2200.07
0	39626	3020.07	2100.07
0	39627	3020.07	2000.07
0	39628	3020.07	1900.07
0	39629	3020.07	1800.07
0	39630	3020.07	1700.07
0	39631	3020.07	1600.07
0	39632	3020.07	1500.07
0	39633	3020.07	1400.07
0	39634	3020.07	2800.07
0	39635	3020.07	2700.07
0	39636	3020.07	2600.07
0	39637	3020.07	2500.07
0	39638	3020.07	2400.07
0	39639	3020.07	2300.07
0	39640	3020.07	2200.07
0	39641	3020.07	2100.07
0	39642	3020.07	2000.07
0	39643	3020.07	1900.07
0	39644	3020.07	1800.07
0	39645	3020.07	1700.07
0	39646	3020.07	1600.07
0	39647	3020.07	1500.07
0	39648	3020.07	1400.07
0	39649	3020.07	1300.07
0	39895	3030.07	2800.07
0	39896	3030.07	2700.07
0	39897	3030.07	2600.07
0	39898	3030.07	2500.07
0	39899	3030.07	2400.07
0	39900	3030.07	2300.07
0	39901	3030.07	2200.07
0	39902	3030.07	2100.07
0	39903	3030.07	2000.07
0	39904	3030.07	1900.07
0	39905	3030.07	1800.07
0	39906	3030.07	1700.07
0	39907	3030.07	1600.07
0	39908	3030.07	1500.07
0	39909	3030.07	1400.07
0	39910	3030.07	2800.07
0	39911	3030.07	2700.07
0	39912	3030.07	2600.07
0	39913	3030.07	2500.07
0	39914	3030.07	2400.07
0	39915	3030.07	2300.07
0	39916	3030.07	2200.07
0	39917	3030.07	2100.07
0	39918	3030.07	2000.07
0	39919	3030.07	1900.07
0	39920	3030.07	1800.07
0	39921	3030.07	1700.07
0	39922	3030.07	1600.07
0	39923	3030.07	1500.07
0	39924	3030.07	1400.07
0	39925	3030.07	1300.07
0	40171	3040.07	2800.07
0	40172	3040.07	2700.07
0	40173	3040.07	2600.07
0	40174	3040.07	2500.07
0	40175	3040.07	2400.07
0	40176	3040.07	2300.07
0	40177	3040.07	2200.07
0	40178	3040.07	2100.07
0	40179	3040.07	2000.07
0	40180	3040.07	1900.07
0	40181	3040.07	1800.07
0	40182	3040.07	1700.07
0	40183	3040.07	1600.07
0	40184	3040.07	1500.07
0	40185	3040.07	1400.07
0	40186	3040.07	2800.07
0	40187	3040.07	2700.07
0	40188	3040.07	2600.07
0	40189	3040.07	2500.07
0	40190	3040.07	2400.07
0	40191	3040.07	2300.07
0	40192	3040.07	2200.07
0	40193	3040.07	2100.07
0	40194	3040.07	2000.07
0	40195	3040.07	1900.07
0	40196	3040.07	1800.07
0	40197	3040.07	1700.07
0	40198	3040.07	1600.07
0	40199	3040.07	1500.07
0	40200	3040.07	1400.07
0	40201	3040.07	1300.07
0	40447	3050.07	2800.07
0	40448	3050.07	2700.07
0	40449	3050.07	2600.07
0	40450	3050.07	2500.07
0	40451	3050.07	2400.07
0	40452	3050.07	2300.07
0	40453	3050.07	2200.07
0	40454	3050.07	2100.07
0	40455	3050.07	2000.07
0	40456	3050.07	1900.07
0	40457	3050.07	1800.07
0	40458	3050.07	1700.07
0	40459	3050.07	1600.07
0	40460	3050.07	1500.07
0	40461	3050.07	1400.07
0	40462	3050.07	2800.07
0	40463	3050.07	2700.07
0	40464	3050.07	2600.07
0	40465	3050.07	2500.07
0	40466	3050.07	2400.07
0	40467	3050.07	2300.07
0	40468	3050.07	2200.07
0	40469	3050.07	2100.07
0	40470	3050.07	2000.07
0	40471	3050.07	1900.07
0	40472	3050.07	1800.07
0	40473	3050.07	1700.07
0	40474	3050.07	1600.07
0	40475	3050.07	1500.07
0	40476	3050.07	1400.07
0	40477	3050.07	1300.07
0	40723	3058.07	3058.07
0	40724	3058.07	3048.07
0	40725	3058.07	3038.07
0	40726	3058.07	3028.07
0	40727	3058.07	3018.07
0	40728	3058.07	3008.07
0	40729	3058.07	2998.07
0	40730	3058.07	2988.07
0	40731	3058.07	2978.07
0	40732	3058.07	2968.07
0	40733	3058.07	2958.07
0	40734	3058.07	2948.07
0	40735	3058.07	2938.07
0	40736	3058.07	2928.07
0	40737	3058.07	2918.07
0	40738	3058.07	2908.07
0	40739	3058.07	3058.07
0	40740	3058.07	3048.07
0	40741	3058.07	3038.07
0	40742	3058.07	3028.07
0	40743	3058.07	3018.07
0	40744	3058.07	3008.07
0	40745	3058.07	2998.07
0	40746	3058.07	2988.07
0	40747	3058.07	2978.07
0	40748	3058.07	2968.07
0	40749	3058.07	2958.07
0	40750	3058.07	2948.07
0	40751	3058.07	2938.07
0	40752	3058.07	2928.07
0	40753	3058.07	2918.07
0	40754	3058.07	2908.07
0	40997	3060.07	2900.07
0	40998	3060.07	2800.07
0	40999	3060.07	2700.07
0	41000	3060.07	2600.07
0	41001	3060.07	2500.07
0	41002	3060.07	2400.07
0	41003	3060.07	2300.07
0	41004	3060.07	2200.07
0	41005	3060.07	2100.07
0	41006	3060.07	2000.07
0	41007	3060.07	1900.07
0	41008	3060.07	1800.07
0	41009	3060.07	1700.07
0	41010	3060.07	1600.07
0	41011	3060.07	1500.07
0	41012	3060.07	1400.07
0	41013	3060.07	2900.07
0	41014	3060.07	2800.07
0	41015	3060.07	2700.07
0	41016	3060.07	2600.07
0	41017	3060.07	2500.07
0	41018	3060.07	2400.07
0	41019	3060.07	2300.07
0	41020	3060.07	2200.07
0	41021	3060.07	2100.07
0	41022	3060.07	2000.07
0	41023	3060.07	1900.07
0	41024	3060.07	1800.07
0	41025	3060.07	1700.07
0	41026	3060.07	1600.07
0	41027	3060.07	1500.07
0	41028	3060.07	1400.07
0	41029	3060.07	1300.07
0	41289	3070.07	2900.07
0	41290	3070.07	2800.07
0	41291	3070.07	2700.07
0	41292	3070.07	2600.07
0	41293	3070.07	2500.07
0	41294	3070.07	2400.07
0	41295	3070.07	2300.07
0	41296	3070.07	2200.07
0	41297	3070.07	2100.07
0	41298	3070.07	2000.07
0	41299	3070.07	1900.07
0	41300	3070.07	1800.07
0	41301	3070.07	1700.07
0	41302	3070.07	1600.07
0	41303	3070.07	1500.07
0	41304	3070.07	1400.07
0	41305	3070.07	2900.07
0	41306	3070.07	2800.07
0	41307	3070.07	2700.07
0	41308	3070.07	2600.07
0	41309	3070.07	2500.07
0	41310	3070.07	2400.07
0	41311	3070.07	2300.07
0	41312	3070.07	2200.07
0	41313	3070.07	2100.07
0	41314	3070.07	2000.07
0	41315	3070.07	1900.07
0	41316	3070.07	1800.07
0	41317	3070.07	1700.07
0	41318	3070.07	1600.07
0	41319	3070.07	1500.07
0	41320	3070.07	1400.07
0	41321	3070.07	1300.07
0	41581	3080.07	2900.07
0	41582	3080.07	2800.07
0	41583	3080.07	2700.07
0	41584	3080.07	2600.07
0	41585	3080.07	2500.07
0	41586	3080.07	2400.07
0	41587	3080.07	2300.07
0	41588	3080.07	2200.07
0	41589	3080.07	2100.07
0	41590	3080.07	2000.07
0	41591	3080.07	1900.07
0	41592	3080.07	1800.07
0	41593	3080.07	1700.07
0	41594	3080.07	1600.07
0	41595	3080.07	1500.07
0	41596	3080.07	1400.07
0	41597	3080.07	2900.07
0	41598	3080.07	2800.07
0	41599	3080.07	2700.07
0	41600	3080.07	2600.07
0	41601	3080.07	2500.07
0	41602	3080.07	2400.07
0	41603	3080.07	2300.07
0	41604	3080.07	2200.07
0	41605	3080.07	2100.07
0	41606	3080.07	2000.07
0	41607	3080.07	1900.07
0	41608	3080.07	1800.07
0	41609	3080.07	1700.07
0	41610	3080.07	1600.07
0	41611	3080.07	1500.07
0	41612	3080.07	1400.07
0	41613	3080.07	1300.07
0	41873	3090.07	2900.07
0	41874	3090.07	2800.07
0	41875	3090.07	2700.07
0	41876	3090.07	2600.07
0	41877	3090.07	2500.07
0	41878	3090.07	2400.07
0	41879	3090.07	2300.07
0	41880	3090.07	2200.07
0	41881	3090.07	2100.07
0	41882	3090.07	2000.07
0	41883	3090.07	1900.07
0	41884	3090.07	1800.07
0	41885	3090.07	1700.07
0	41886	3090.07	1600.07
0	41887	3090.07	1500.07
0	41888	3090.07	1400.07
0	41889	3090.07	2900.07
0	41890	3090.07	2800.07
0	41891	3090.07	2700.07
0	41892	3090.07	2600.07
0	41893	3090.07	2500.07
0	41894	3090.07	2400.07
0	41895	3090.07	2300.07
0	41896	3090.07	2200.07
0	41897	3090.07	2100.07
0	41898	3090.07	2000.07
0	41899	3090.07	1900.07
0	41900	3090.07	1800.07
0	41901	3090.07	1700.07
0	41902	3090.07	1600.07
0	41903	3090.07	1500.07
0	41904	3090.07	1400.07
0	41905	3090.07	1300.07
0	42165	3100.07	2900.07
0	42166	3100.07	2800.07
0	42167	3100.07	2700.07
0	42168	3100.07	2600.07
0	42169	3100.07	2500.07
0	42170	3100.07	2400.07
0	42171	3100.07	2300.07
0	42172	3100.07	2200.07
[...]
0	76866	8920.09	5250.09
0	76867	8920.09	5240.09
0	76868	8920.09	5230.09
0	76869	8920.09	5220.09
0	76870	8920.09	5210.09
0	76871	8920.09	5200.09
0	76872	8920.09	5190.09
0	76873	8920.09	5180.09
0	76874	8920.09	5170.09
0	76875	8920.09	5160.09
0	76876	8920.09	5150.09
0	76877	8920.09	5140.09
0	76878	8920.09	5130.09
0	76879	8920.09	5120.09
0	76880	8920.09	5110.09
0	76881	8920.09	5100.09
0	76882	8920.09	5090.09
0	76883	8920.09	5080.09
0	76884	8920.09	5070.09
0	76885	8920.09	5060.09
0	76886	8920.09	5010.09
0	76887	8920.09	4910.09
0	76888	8920.09	5000.09
0	76889	8920.09	4900.09
0	76890	8920.09	4990.09
0	76891	8920.09	4890.09
0	76892	8920.09	4980.09
0	76893	8920.09	4880.09
0	76894	8920.09	4970.09
0	76895	8920.09	4870.09
0	76896	8920.09	4960.09
0	76897	8920.09	4860.09
0	76898	8920.09	5050.09
0	76899	8920.09	4950.09
0	76900	8920.09	4850.09
0	76901	8920.09	5040.09
0	76902	8920.09	4940.09
0	76903	8920.09	4840.09
0	76904	8920.09	5030.09
0	76905	8920.09	4930.09
0	76906	8920.09	4830.09
0	76907	8920.09	5020.09
0	76908	8920.09	4920.09
0	76909	8920.09	4820.09
0	76910	8920.09	4810.09
0	76911	8920.09	4800.09
0	76912	8920.09	4790.09
0	76913	8920.09	4780.09
0	76914	8920.09	4770.09
0	76915	8920.09	4760.09
0	76916	8920.09	4750.09
0	76917	8920.09	4740.09
0	76918	8920.09	4730.09
0	76919	8920.09	4720.09
0	76920	8920.09	4710.09
0	76921	8920.09	4700.09
0	76922	8920.09	4690.09
0	76923	8920.09	4680.09
0	76924	8920.09	4670.09
0	76925	8920.09	4660.09
0	76926	8920.09	4650.09
0	76927	8920.09	4640.09
0	76928	8920.09	4630.09
0	76929	8920.09	4620.09
0	76930	8920.09	4610.09
0	76931	8920.09	4600.09
0	76932	8920.09	4590.09
0	76933	8920.09	4580.09
0	76934	8920.09	4570.09
0	76935	8920.09	4560.09
0	76936	8920.09	4550.09
0	76937	8920.09	4540.09
0	76938	8920.09	4530.09
0	76939	8920.09	4520.09
0	76940	8920.09	4510.09
0	76941	8920.09	4500.09
0	76942	8920.09	4490.09
0	76943	8920.09	4480.09
0	76944	8920.09	4470.09
0	76945	8920.09	4460.09
0	76946	8920.09	4450.09
0	76947	8920.09	4440.09
0	76948	8920.09	4430.09
0	76949	8920.09	4420.09
0	76950	8920.09	4410.09
0	76951	8920.09	4400.09
0	76952	8920.09	4390.09
0	76953	8920.09	4380.09
0	76954	8920.09	4370.09
0	76955	8920.09	4360.09
0	76956	8920.09	4350.09
0	76957	8920.09	4340.09
0	76958	8920.09	4330.09
0	76959	8920.09	4320.09
0	76960	8920.09	4310.09
0	76961	8920.09	4300.09
0	76962	8920.09	4290.09
0	76963	8920.09	4280.09
0	76964	8920.09	1400.09
0	76965	8920.09	1300.09
0	77742	8930.09	1400.09
0	77743	8930.09	1300.09
0	77825	8940.09	1400.09
0	77826	8940.09	1300.09
0	77910	8950.09	1400.09
0	77911	8950.09	1300.09
0	77989	8960.09	1400.09
0	77990	8960.09	1300.09
0	78068	8970.09	1400.09
0	78069	8970.09	1300.09
0	78147	8980.09	1400.09
0	78148	8980.09	1300.09
0	78226	8990.09	1400.09
0	78227	8990.09	1300.09
0	78329	9000.09	1400.09
0	78330	9000.09	1300.09
0	78412	9010.09	1400.09
0	78413	9010.09	1300.09
0	80034	9020.09	5670.09
0	80035	9020.09	5760.09
0	80036	9020.09	5660.09
0	80037	9020.09	5750.09
0	80038	9020.09	5650.09
0	80039	9020.09	5740.09
0	80040	9020.09	5640.09
0	80041	9020.09	5730.09
0	80042	9020.09	5630.09
0	80043	9020.09	5720.09
0	80044	9020.09	5620.09
0	80045	9020.09	5710.09
0	80046	9020.09	5610.09
0	80047	9020.09	5700.09
0	80048	9020.09	5600.09
0	80049	9020.09	5690.09
0	80050	9020.09	5590.09
0	80051	9020.09	5680.09
0	80052	9020.09	5580.09
0	80053	9020.09	5570.09
0	80054	9020.09	5560.09
0	80055	9020.09	5550.09
0	80056	9020.09	5540.09
0	80057	9020.09	5530.09
0	80058	9020.09	5520.09
0	80059	9020.09	5510.09
0	80060	9020.09	5500.09
0	80061	9020.09	5490.09
0	80062	9020.09	5480.09
0	80063	9020.09	5470.09
0	80064	9020.09	5460.09
0	80065	9020.09	5450.09
0	80066	9020.09	5440.09
0	80067	9020.09	5430.09
0	80068	9020.09	5420.09
0	80069	9020.09	5410.09
0	80070	9020.09	5400.09
0	80071	9020.09	5390.09
0	80072	9020.09	5380.09
0	80073	9020.09	5370.09
0	80074	9020.09	5360.09
0	80075	9020.09	5350.09
0	80076	9020.09	5340.09
0	80077	9020.09	5330.09
0	80078	9020.09	5320.09
0	80079	9020.09	5310.09
0	80080	9020.09	5300.09
0	80081	9020.09	5290.09
0	80082	9020.09	5280.09
0	80083	9020.09	5270.09
0	80084	9020.09	5260.09
0	80085	9020.09	5250.09
0	80086	9020.09	5240.09
0	80087	9020.09	5230.09
0	80088	9020.09	5220.09
0	80089	9020.09	5210.09
0	80090	9020.09	5200.09
0	80091	9020.09	5190.09
0	80092	9020.09	5180.09
0	80093	9020.09	5170.09
0	80094	9020.09	5160.09
0	80095	9020.09	5110.09
0	80096	9020.09	5010.09
0	80097	9020.09	5100.09
0	80098	9020.09	5000.09
0	80099	9020.09	5090.09
0	80100	9020.09	4990.09
0	80101	9020.09	5080.09
0	80102	9020.09	4980.09
0	80103	9020.09	5070.09
0	80104	9020.09	4970.09
0	80105	9020.09	5060.09
0	80106	9020.09	4960.09
0	80107	9020.09	5150.09
0	80108	9020.09	5050.09
0	80109	9020.09	4950.09
0	80110	9020.09	5140.09
0	80111	9020.09	5040.09
0	80112	9020.09	4940.09
0	80113	9020.09	5130.09
0	80114	9020.09	5030.09
0	80115	9020.09	4930.09
0	80116	9020.09	5120.09
0	80117	9020.09	5020.09
0	80118	9020.09	4920.09
0	80119	9020.09	4910.09
0	80120	9020.09	4900.09
0	80121	9020.09	4890.09
0	80122	9020.09	4880.09
0	80123	9020.09	4870.09
0	80124	9020.09	4860.09
0	80125	9020.09	4850.09
0	80126	9020.09	4840.09
0	80127	9020.09	4830.09
0	80128	9020.09	4820.09
0	80129	9020.09	4810.09
0	80130	9020.09	4800.09
0	80131	9020.09	4790.09
0	80132	9020.09	4780.09
0	80133	9020.09	4770.09
0	80134	9020.09	4760.09
0	80135	9020.09	4750.09
0	80136	9020.09	4740.09
0	80137	9020.09	4730.09
0	80138	9020.09	4720.09
0	80139	9020.09	4710.09
0	80140	9020.09	4700.09
0	80141	9020.09	4690.09
0	80142	9020.09	4680.09
0	80143	9020.09	4670.09
0	80144	9020.09	4660.09
0	80145	9020.09	4650.09
0	80146	9020.09	4640.09
0	80147	9020.09	4630.09
0	80148	9020.09	4620.09
0	80149	9020.09	4610.09
0	80150	9020.09	4600.09
0	80151	9020.09	4590.09
0	80152	9020.09	4580.09
0	80153	9020.09	4570.09
0	80154	9020.09	4560.09
0	80155	9020.09	4550.09
0	80156	9020.09	4540.09
0	80157	9020.09	4530.09
0	80158	9020.09	4520.09
0	80159	9020.09	4510.09
0	80160	9020.09	4500.09
0	80161	9020.09	4490.09
0	80162	9020.09	4480.09
0	80163	9020.09	4470.09
0	80164	9020.09	4460.09
0	80165	9020.09	4450.09
0	80166	9020.09	4440.09
0	80167	9020.09	4430.09
0	80168	9020.09	4420.09
0	80169	9020.09	4410.09
0	80170	9020.09	4400.09
0	80171	9020.09	4390.09
0	80172	9020.09	4380.09
0	80173	9020.09	1500.09
0	80174	9020.09	1400.09
0	80175	9020.09	1300.09
0	80967	9030.09	1500.09
0	80968	9030.09	1400.09
0	80969	9030.09	1300.09
0	81451	9320.07	1300.07
0	81473	9330.07	1300.07
0	81495	9340.07	1300.07
0	81561	9395.07	1345.07
0	81562	9395.07	1335.07
0	81563	9395.07	1325.07
0	81564	9395.07	1315.07
0	81565	9395.07	1305.07
0	81607	9400.07	1300.07
0	81629	9410.07	1300.07
0	81659	9420.07	1400.07
0	81660	9420.07	1300.07
0	81695	9430.07	1400.07
0	81696	9430.07	1300.07
0	81731	9440.07	1400.07
0	81732	9440.07	1300.07
0	81759	9450.07	1300.07
0	81781	9460.07	1300.07
0	81803	9470.07	1300.07
0	81825	9480.07	1300.07
0	81847	9490.07	1300.07
0	81898	9495.07	1445.07
0	81899	9495.07	1435.07
0	81900	9495.07	1425.07
0	81901	9495.07	1415.07
0	81902	9495.07	1405.07
0	81952	9500.07	1400.07
0	81953	9500.07	1300.07
0	81988	9510.07	1400.07
0	81989	9510.07	1300.07
0	82032	9520.07	1500.07
0	82033	9520.07	1400.07
0	82034	9520.07	1300.07
0	82082	9530.07	1500.07
0	82083	9530.07	1400.07
0	82084	9530.07	1300.07
0	82132	9540.07	1500.07
0	82133	9540.07	1400.07
0	82134	9540.07	1300.07
0	82174	9550.07	1400.07
0	82175	9550.07	1300.07
0	82210	9560.07	1400.07
0	82211	9560.07	1300.07
0	82246	9570.07	1400.07
0	82247	9570.07	1300.07
0	82282	9580.07	1400.07
0	82283	9580.07	1300.07
0	82318	9590.07	1400.07
0	82319	9590.07	1300.07
0	82375	9595.07	1545.07
0	82376	9595.07	1535.07
0	82377	9595.07	1525.07
0	82378	9595.07	1515.07
0	82379	9595.07	1505.07
0	82437	9600.07	1500.07
0	82438	9600.07	1400.07
0	82439	9600.07	1300.07
0	82487	9610.07	1500.07
0	82488	9610.07	1400.07
0	82489	9610.07	1300.07
0	82545	9620.07	1600.07
0	82546	9620.07	1500.07
0	82547	9620.07	1400.07
0	82548	9620.07	1300.07
0	82609	9630.07	1600.07
0	82610	9630.07	1500.07
0	82611	9630.07	1400.07
0	82612	9630.07	1300.07
0	82673	9640.07	1600.07
0	82674	9640.07	1500.07
0	82675	9640.07	1400.07
0	82676	9640.07	1300.07
0	82729	9650.07	1500.07
0	82730	9650.07	1400.07
0	82731	9650.07	1300.07
0	82779	9660.07	1500.07
0	82780	9660.07	1400.07
0	82781	9660.07	1300.07
0	82829	9670.07	1500.07
0	82830	9670.07	1400.07
0	82831	9670.07	1300.07
0	82879	9680.07	1500.07
0	82880	9680.07	1400.07
0	82881	9680.07	1300.07
0	82929	9690.07	1500.07
0	82930	9690.07	1400.07
0	82931	9690.07	1300.07
0	82992	9695.07	1645.07
0	82993	9695.07	1635.07
0	82994	9695.07	1625.07
0	82995	9695.07	1615.07
0	82996	9695.07	1605.07
0	83062	9700.07	1600.07
0	83063	9700.07	1500.07
0	83064	9700.07	1400.07
0	83065	9700.07	1300.07
0	83126	9710.07	1600.07
0	83127	9710.07	1500.07
0	83128	9710.07	1400.07
0	83129	9710.07	1300.07
0	83198	9720.07	1700.07
0	83199	9720.07	1600.07
0	83200	9720.07	1500.07
0	83201	9720.07	1400.07
0	83202	9720.07	1300.07
0	83276	9730.07	1700.07
0	83277	9730.07	1600.07
0	83278	9730.07	1500.07
0	83279	9730.07	1400.07
0	83280	9730.07	1300.07
0	83354	9740.07	1700.07
0	83355	9740.07	1600.07
0	83356	9740.07	1500.07
0	83357	9740.07	1400.07
0	83358	9740.07	1300.07
0	83424	9750.07	1600.07
0	83425	9750.07	1500.07
0	83426	9750.07	1400.07
0	83427	9750.07	1300.07
0	83488	9760.07	1600.07
0	83489	9760.07	1500.07
0	83490	9760.07	1400.07
0	83491	9760.07	1300.07
0	83552	9770.07	1600.07
0	83553	9770.07	1500.07
0	83554	9770.07	1400.07
0	83555	9770.07	1300.07
0	83616	9780.07	1600.07
0	83617	9780.07	1500.07
0	83618	9780.07	1400.07
0	83619	9780.07	1300.07
0	83680	9790.07	1600.07
0	83681	9790.07	1500.07
0	83682	9790.07	1400.07
0	83683	9790.07	1300.07
0	83749	9795.07	1745.07
0	83750	9795.07	1735.07
0	83751	9795.07	1725.07
0	83752	9795.07	1715.07
0	83753	9795.07	1705.07
0	83827	9800.07	1700.07
0	83828	9800.07	1600.07
0	83829	9800.07	1500.07
0	83830	9800.07	1400.07
0	83831	9800.07	1300.07
0	83905	9810.07	1700.07
0	83906	9810.07	1600.07
0	83907	9810.07	1500.07
0	83908	9810.07	1400.07
0	83909	9810.07	1300.07
0	83991	9820.07	1800.07
0	83992	9820.07	1700.07
0	83993	9820.07	1600.07
0	83994	9820.07	1500.07
0	83995	9820.07	1400.07
0	83996	9820.07	1300.07
0	84083	9830.07	1800.07
0	84084	9830.07	1700.07
0	84085	9830.07	1600.07
0	84086	9830.07	1500.07
0	84087	9830.07	1400.07
0	84088	9830.07	1300.07
0	84175	9840.07	1800.07
0	84176	9840.07	1700.07
0	84177	9840.07	1600.07
0	84178	9840.07	1500.07
0	84179	9840.07	1400.07
0	84180	9840.07	1300.07
0	84259	9850.07	1700.07
0	84260	9850.07	1600.07
0	84261	9850.07	1500.07
0	84262	9850.07	1400.07
0	84263	9850.07	1300.07
0	84337	9860.07	1700.07
0	84338	9860.07	1600.07
0	84339	9860.07	1500.07
0	84340	9860.07	1400.07
0	84341	9860.07	1300.07
0	84415	9870.07	1700.07
0	84416	9870.07	1600.07
0	84417	9870.07	1500.07
0	84418	9870.07	1400.07
0	84419	9870.07	1300.07
0	84493	9880.07	1700.07
0	84494	9880.07	1600.07
0	84495	9880.07	1500.07
0	84496	9880.07	1400.07
0	84497	9880.07	1300.07
0	84571	9890.07	1700.07
0	84572	9890.07	1600.07
0	84573	9890.07	1500.07
0	84574	9890.07	1400.07
0	84575	9890.07	1300.07
0	84646	9895.07	1845.07
0	84647	9895.07	1835.07
0	84648	9895.07	1825.07
0	84649	9895.07	1815.07
0	84650	9895.07	1805.07
0	84732	9900.07	1800.07
0	84733	9900.07	1700.07
0	84734	9900.07	1600.07
0	84735	9900.07	1500.07
0	84736	9900.07	1400.07
0	84737	9900.07	1300.07
0	84824	9910.07	1800.07
0	84825	9910.07	1700.07
0	84826	9910.07	1600.07
0	84827	9910.07	1500.07
0	84828	9910.07	1400.07
0	84829	9910.07	1300.07
0	84924	9920.07	1900.07
0	84925	9920.07	1800.07
0	84926	9920.07	1700.07
0	84927	9920.07	1600.07
0	84928	9920.07	1500.07
0	84929	9920.07	1400.07
0	84930	9920.07	1300.07
0	85030	9930.07	1900.07
0	85031	9930.07	1800.07
0	85032	9930.07	1700.07
0	85033	9930.07	1600.07
0	85034	9930.07	1500.07
0	85035	9930.07	1400.07
0	85036	9930.07	1300.07
0	85136	9940.07	1900.07
0	85137	9940.07	1800.07
0	85138	9940.07	1700.07
0	85139	9940.07	1600.07
0	85140	9940.07	1500.07
0	85141	9940.07	1400.07
0	85142	9940.07	1300.07
0	85234	9950.07	1800.07
0	85235	9950.07	1700.07
0	85236	9950.07	1600.07
0	85237	9950.07	1500.07
0	85238	9950.07	1400.07
0	85239	9950.07	1300.07
0	85326	9960.07	1800.07
0	85327	9960.07	1700.07
0	85328	9960.07	1600.07
0	85329	9960.07	1500.07
0	85330	9960.07	1400.07
0	85331	9960.07	1300.07
0	85418	9970.07	1800.07
0	85419	9970.07	1700.07
0	85420	9970.07	1600.07
0	85421	9970.07	1500.07
0	85422	9970.07	1400.07
0	85423	9970.07	1300.07
0	85510	9980.07	1800.07
0	85511	9980.07	1700.07
0	85512	9980.07	1600.07
0	85513	9980.07	1500.07
0	85514	9980.07	1400.07
0	85515	9980.07	1300.07
0	85602	9990.07	1800.07
0	85603	9990.07	1700.07
0	85604	9990.07	1600.07
0	85605	9990.07	1500.07
0	85606	9990.07	1400.07
0	85607	9990.07	1300.07
0	85683	9995.07	1945.07
0	85684	9995.07	1935.07
0	85685	9995.07	1925.07
0	85686	9995.07	1915.07
0	85687	9995.07	1905.07
0	85777	10000.07	1900.07
0	85778	10000.07	1800.07
0	85779	10000.07	1700.07
0	85780	10000.07	1600.07
0	85781	10000.07	1500.07
0	85782	10000.07	1400.07
0	85783	10000.07	1300.07
0	85883	10010.07	1900.07
0	85884	10010.07	1800.07
0	85885	10010.07	1700.07
0	85886	10010.07	1600.07
0	85887	10010.07	1500.07
0	85888	10010.07	1400.07
0	85889	10010.07	1300.07
0	85997	10020.07	2000.07
0	85998	10020.07	1900.07
0	85999	10020.07	1800.07
0	86000	10020.07	1700.07
0	86001	10020.07	1600.07
0	86002	10020.07	1500.07
0	86003	10020.07	1400.07
0	86004	10020.07	1300.07
0	86117	10030.07	2000.07
0	86118	10030.07	1900.07
0	86119	10030.07	1800.07
0	86120	10030.07	1700.07
0	86121	10030.07	1600.07
0	86122	10030.07	1500.07
0	86123	10030.07	1400.07
0	86124	10030.07	1300.07
0	86237	10040.07	2000.07
0	86238	10040.07	1900.07
0	86239	10040.07	1800.07
0	86240	10040.07	1700.07
0	86241	10040.07	1600.07
0	86242	10040.07	1500.07
0	86243	10040.07	1400.07
0	86244	10040.07	1300.07
0	86349	10050.07	1900.07
0	86350	10050.07	1800.07
0	86351	10050.07	1700.07
0	86352	10050.07	1600.07
0	86353	10050.07	1500.07
0	86354	10050.07	1400.07
0	86355	10050.07	1300.07
0	86455	10060.07	1900.07
0	86456	10060.07	1800.07
0	86457	10060.07	1700.07
0	86458	10060.07	1600.07
0	86459	10060.07	1500.07
0	86460	10060.07	1400.07
0	86461	10060.07	1300.07
0	86561	10070.07	1900.07
0	86562	10070.07	1800.07
0	86563	10070.07	1700.07
0	86564	10070.07	1600.07
0	86565	10070.07	1500.07
0	86566	10070.07	1400.07
0	86567	10070.07	1300.07
0	86667	10080.07	1900.07
0	86668	10080.07	1800.07
0	86669	10080.07	1700.07
0	86670	10080.07	1600.07
0	86671	10080.07	1500.07
0	86672	10080.07	1400.07
0	86673	10080.07	1300.07
0	86773	10090.07	1900.07
0	86774	10090.07	1800.07
0	86775	10090.07	1700.07
0	86776	10090.07	1600.07
0	86777	10090.07	1500.07
0	86778	10090.07	1400.07
0	86779	10090.07	1300.07
0	86860	10095.07	2045.07
0	86861	10095.07	2035.07
0	86862	10095.07	2025.07
0	86863	10095.07	2015.07
0	86864	10095.07	2005.07
0	86962	10100.07	2000.07
0	86963	10100.07	1900.07
0	86964	10100.07	1800.07
0	86965	10100.07	1700.07
0	86966	10100.07	1600.07
0	86967	10100.07	1500.07
0	86968	10100.07	1400.07
0	86969	10100.07	1300.07
0	87082	10110.07	2000.07
0	87083	10110.07	1900.07
0	87084	10110.07	1800.07
0	87085	10110.07	1700.07
0	87086	10110.07	1600.07
0	87087	10110.07	1500.07
0	87088	10110.07	1400.07
0	87089	10110.07	1300.07
0	87892	10120.07	2100.07
0	87893	10120.07	2000.07
0	87894	10120.07	1900.07
0	87895	10120.07	1800.07
0	87896	10120.07	1700.07
0	87897	10120.07	1600.07
0	87898	10120.07	1500.07
0	87899	10120.07	1400.07
0	87900	10120.07	1300.07
0	88028	10130.07	2100.07
0	88029	10130.07	2000.07
0	88030	10130.07	1900.07
0	88031	10130.07	1800.07
0	88032	10130.07	1700.07
0	88033	10130.07	1600.07
0	88034	10130.07	1500.07
0	88035	10130.07	1400.07
0	88036	10130.07	1300.07
0	88164	10140.07	2100.07
0	88165	10140.07	2000.07
0	88166	10140.07	1900.07
0	88167	10140.07	1800.07
0	88168	10140.07	1700.07
0	88169	10140.07	1600.07
0	88170	10140.07	1500.07
0	88171	10140.07	1400.07
0	88172	10140.07	1300.07
0	88292	10150.07	2000.07
0	88293	10150.07	1900.07
0	88294	10150.07	1800.07
0	88295	10150.07	1700.07
0	88296	10150.07	1600.07
0	88297	10150.07	1500.07
0	88298	10150.07	1400.07
0	88299	10150.07	1300.07
0	88414	10160.07	2000.07
0	88415	10160.07	1900.07
0	88416	10160.07	1800.07
0	88417	10160.07	1700.07
0	88418	10160.07	1600.07
0	88419	10160.07	1500.07
0	88420	10160.07	1400.07
0	88421	10160.07	1300.07
0	88536	10170.07	2000.07
0	88537	10170.07	1900.07
0	88538	10170.07	1800.07
0	88539	10170.07	1700.07
0	88540	10170.07	1600.07
0	88541	10170.07	1500.07
0	88542	10170.07	1400.07
0	88543	10170.07	1300.07
0	88658	10180.07	2000.07
0	88659	10180.07	1900.07
0	88660	10180.07	1800.07
0	88661	10180.07	1700.07
0	88662	10180.07	1600.07
0	88663	10180.07	1500.07
0	88664	10180.07	1400.07
0	88665	10180.07	1300.07
0	88780	10190.07	2000.07
0	88781	10190.07	1900.07
0	88782	10190.07	1800.07
0	88783	10190.07	1700.07
0	88784	10190.07	1600.07
0	88785	10190.07	1500.07
0	88786	10190.07	1400.07
0	88787	10190.07	1300.07
0	88873	10195.07	2145.07
0	88874	10195.07	2135.07
0	88875	10195.07	2125.07
0	88876	10195.07	2115.07
0	88877	10195.07	2105.07
0	88985	10200.07	2100.07
0	88986	10200.07	2000.07
0	88987	10200.07	1900.07
0	88988	10200.07	1800.07
0	88989	10200.07	1700.07
0	88990	10200.07	1600.07
0	88991	10200.07	1500.07
0	88992	10200.07	1400.07
0	88993	10200.07	1300.07
0	89121	10210.07	2100.07
0	89122	10210.07	2000.07
0	89123	10210.07	1900.07
0	89124	10210.07	1800.07
0	89125	10210.07	1700.07
0	89126	10210.07	1600.07
0	89127	10210.07	1500.07
0	89128	10210.07	1400.07
0	89129	10210.07	1300.07
0	89538	10220.07	2200.07
0	89539	10220.07	2100.07
0	89540	10220.07	2000.07
0	89541	10220.07	1900.07
0	89542	10220.07	1800.07
0	89543	10220.07	1700.07
0	89544	10220.07	1600.07
0	89545	10220.07	1500.07
0	89546	10220.07	1400.07
0	89677	10230.07	2200.07
0	89678	10230.07	2100.07
0	89679	10230.07	2000.07
0	89680	10230.07	1900.07
0	89681	10230.07	1800.07
0	89682	10230.07	1700.07
0	89683	10230.07	1600.07
0	89684	10230.07	1500.07
0	89685	10230.07	1400.07
0	89816	10240.07	2200.07
0	89817	10240.07	2100.07
0	89818	10240.07	2000.07
0	89819	10240.07	1900.07
0	89820	10240.07	1800.07
0	89821	10240.07	1700.07
0	89822	10240.07	1600.07
0	89823	10240.07	1500.07
0	89824	10240.07	1400.07
0	89947	10250.07	2100.07
0	89948	10250.07	2000.07
0	89949	10250.07	1900.07
0	89950	10250.07	1800.07
0	89951	10250.07	1700.07
0	89952	10250.07	1600.07
0	89953	10250.07	1500.07
0	89954	10250.07	1400.07
0	90072	10260.07	2100.07
0	90073	10260.07	2000.07
0	90074	10260.07	1900.07
0	90075	10260.07	1800.07
0	90076	10260.07	1700.07
0	90077	10260.07	1600.07
0	90078	10260.07	1500.07
0	90079	10260.07	1400.07
0	90197	10270.07	2100.07
0	90198	10270.07	2000.07
0	90199	10270.07	1900.07
0	90200	10270.07	1800.07
0	90201	10270.07	1700.07
0	90202	10270.07	1600.07
0	90203	10270.07	1500.07
0	90204	10270.07	1400.07
0	90322	10280.07	2100.07
0	90323	10280.07	2000.07
0	90324	10280.07	1900.07
0	90325	10280.07	1800.07
0	90326	10280.07	1700.07
0	90327	10280.07	1600.07
0	90328	10280.07	1500.07
0	90329	10280.07	1400.07
0	90447	10290.07	2100.07
0	90448	10290.07	2000.07
0	90449	10290.07	1900.07
0	90450	10290.07	1800.07
0	90451	10290.07	1700.07
0	90452	10290.07	1600.07
0	90453	10290.07	1500.07
0	90454	10290.07	1400.07
0	90540	10295.07	2245.07
0	90541	10295.07	2235.07
0	90542	10295.07	2225.07
0	90543	10295.07	2215.07
0	90544	10295.07	2205.07
0	90655	10300.07	2200.07
0	90656	10300.07	2100.07
0	90657	10300.07	2000.07
0	90658	10300.07	1900.07
0	90659	10300.07	1800.07
0	90660	10300.07	1700.07
0	90661	10300.07	1600.07
0	90662	10300.07	1500.07
0	90663	10300.07	1400.07
0	90794	10310.07	2200.07
0	90795	10310.07	2100.07
0	90796	10310.07	2000.07
0	90797	10310.07	1900.07
0	90798	10310.07	1800.07
0	90799	10310.07	1700.07
0	90800	10310.07	1600.07
0	90801	10310.07	1500.07
0	90802	10310.07	1400.07
0	91213	10320.07	2300.07
0	91214	10320.07	2200.07
0	91215	10320.07	2100.07
0	91216	10320.07	2000.07
0	91217	10320.07	1900.07
0	91218	10320.07	1800.07
0	91219	10320.07	1700.07
0	91220	10320.07	1600.07
0	91221	10320.07	1500.07
0	91354	10330.07	2300.07
0	91355	10330.07	2200.07
0	91356	10330.07	2100.07
0	91357	10330.07	2000.07
0	91358	10330.07	1900.07
0	91359	10330.07	1800.07
0	91360	10330.07	1700.07
0	91361	10330.07	1600.07
0	91362	10330.07	1500.07

