version 2
run General-0-20250114-19:10:28-93261
attr configname General
attr datetime 20250114-19:10:28
attr experiment General
attr inifile shaw.ini
attr iterationvars ""
attr iterationvarsf ""
attr measurement ""
attr network src.dtnsim
attr processid 93261
attr repetition 0
attr replication #0
attr resultdir results
attr runnumber 0
attr seedset 0
param dtnsim.central.contactsFile "\"contactPlan/Contacts.txt\""
param dtnsim.central.contactsFile_A "\"contactPlan/Contacts.txt\""
param dtnsim.central.contactsFile_B "\"contactPlan/Contacts.txt\""
param dtnsim.central.contactIdsToDelete_from_celestialA "\"1 5 15 47 57 77 85 91 99 143 147 177 179 193 203 214 223 233 241 242 245 246 273 276 277 292 295 301 302 317 341 353 388 413 450 459 465 467 475 501 523 528 537 542 548 559 581 595 597 601 609 616 617 627 631 647 655 694 721 738 745 771 773 777\""
param dtnsim.central.contactIdsToDelete_from_celestialB "\"6 9 10 13 20 21 23 31 50 52 62 90 93 94 104 116 125 130 132 142 150 152 170 174 178 180 181 201 204 266 283 296 298 300 306 316 321 331 340 342 350 376 380 384 394 406 414 416 422 430 443 446 454 456 461 494 504 506 530 540 544 551 570 574 580 582 589 614 622 624 666 680 681 687 696 697 699 702 711 722 759 764 775 779 788 791\""
param dtnsim.central.celestialA_nodes "\"1 2 3\""
param dtnsim.central.celestialB_nodes "\"4 5 6\""
param dtnsim.central.locallyfaultsAware true
param dtnsim.central.mode_two_celestial true
param dtnsim.nodesNumber 6
param dtnsim.node[1].icon "\"receiverdish\""
param dtnsim.node[2..5].icon "\"satellite\""
param dtnsim.node[6].icon "\"receiverdish\""
param dtnsim.node[*].dtn.routing "\"cgrModel350\""
param dtnsim.node[*].dtn.routingType "\"routeListType:allPaths-firstEnding,volumeAware:allContacts,extensionBlock:on,contactPlan:global\""
param dtnsim.node[1].app.enable true
param dtnsim.node[*].app.custodyTransfer true
param dtnsim.node[1].app.bundlesNumber "\"3600\""
param dtnsim.node[1].app.start "\"0\""
param dtnsim.node[1].app.destinationEid "\"6\""
param dtnsim.node[1].app.size "\"1500\""
param dtnsim.node[1].app.interval 1

vector 0 dtnsim.node[6].app appBundleReceivedDelayvec:vector ETV
attr interpolationmode none
attr source appBundleReceivedDelay
attr title "appBundleReceivedDelayvec, vector"
0	5293	154.3	154.3
0	5294	154.3	153.3
0	5295	154.3	152.3
0	5296	154.3	151.3
0	5297	154.3	150.3
0	5298	154.3	149.3
0	5299	154.3	148.3
0	5300	154.3	147.3
0	5301	154.3	146.3
0	5302	154.3	145.3
0	5303	154.3	144.3
0	5304	154.3	143.3
0	5305	154.3	142.3
0	5306	154.3	141.3
0	5307	154.3	140.3
0	5308	154.3	139.3
0	5309	154.3	138.3
0	5310	154.3	137.3
0	5311	154.3	136.3
0	5312	154.3	135.3
0	5313	154.3	134.3
0	5314	154.3	133.3
0	5315	154.3	132.3
0	5316	154.3	131.3
0	5317	154.3	130.3
0	5318	154.3	129.3
0	5319	154.3	128.3
0	5320	154.3	127.3
0	5321	154.3	126.3
0	5322	154.3	125.3
0	5323	154.3	124.3
0	5324	154.3	123.3
0	5325	154.3	122.3
0	5326	154.3	121.3
0	5327	154.3	120.3
0	5328	154.3	119.3
0	5329	154.3	118.3
0	5330	154.3	117.3
0	5331	154.3	116.3
0	5332	154.3	115.3
0	5333	154.3	114.3
0	5334	154.3	113.3
0	5335	154.3	112.3
0	5336	154.3	111.3
0	5337	154.3	110.3
0	5338	154.3	109.3
0	5339	154.3	108.3
0	5340	154.3	107.3
0	5341	154.3	106.3
0	5342	154.3	105.3
0	5343	154.3	104.3
0	5344	154.3	103.3
0	5345	154.3	102.3
0	5346	154.3	101.3
0	5347	154.3	100.3
0	5348	154.3	99.3
0	5349	154.3	98.3
0	5350	154.3	97.3
0	5351	154.3	96.3
0	5352	154.3	95.3
0	5353	154.3	94.3
0	5354	154.3	93.3
0	5355	154.3	92.3
0	5356	154.3	91.3
0	5357	154.3	90.3
0	5358	154.3	89.3
0	5359	154.3	88.3
0	5360	154.3	87.3
0	5361	154.3	86.3
0	5362	154.3	85.3
0	5363	154.3	84.3
0	5364	154.3	83.3
0	5365	154.3	82.3
0	5366	154.3	81.3
0	5367	154.3	80.3
0	5368	154.3	79.3
0	5369	154.3	78.3
0	5370	154.3	77.3
0	5371	154.3	76.3
0	5372	154.3	75.3
0	5373	154.3	74.3
0	5374	154.3	73.3
0	5375	154.3	72.3
0	5376	154.3	71.3
0	5377	154.3	70.3
0	5378	154.3	69.3
0	5379	154.3	68.3
0	5380	154.3	67.3
0	5381	154.3	66.3
0	5382	154.3	65.3
0	5383	154.3	64.3
0	5384	154.3	63.3
0	5385	154.3	62.3
0	5386	154.3	61.3
0	5387	154.3	60.3
0	5388	154.3	59.3
0	5389	154.3	58.3
0	5390	154.3	57.3
0	5391	154.3	56.3
0	5392	154.3	55.3
0	5393	154.3	54.3
0	5394	154.3	53.3
0	5395	154.3	52.3
0	5396	154.3	51.3
0	5397	154.3	50.3
0	5398	154.3	49.3
0	5399	154.3	48.3
0	5400	154.3	47.3
0	5401	154.3	46.3
0	5402	154.3	45.3
0	5403	154.3	44.3
0	11456	240.4	129.4
0	11457	240.4	128.4
0	11458	240.4	127.4
0	11459	240.4	126.4
0	11460	240.4	125.4
0	11461	240.4	124.4
0	11462	240.4	123.4
0	11463	240.4	122.4
0	11464	240.4	121.4
0	11465	240.4	120.4
0	11466	240.4	119.4
0	11467	240.4	118.4
0	11468	240.4	117.4
0	11469	240.4	116.4
0	11470	240.4	115.4
0	11471	240.4	114.4
0	11472	240.4	113.4
0	11473	240.4	112.4
0	11474	240.4	111.4
0	11475	240.4	110.4
0	11476	240.4	109.4
0	11477	240.4	108.4
0	11478	240.4	107.4
0	11479	240.4	106.4
0	11480	240.4	105.4
0	11481	240.4	104.4
0	11482	240.4	103.4
0	11483	240.4	102.4
0	11484	240.4	101.4
0	11485	240.4	100.4
0	11486	240.4	99.4
0	11487	240.4	98.4
0	11488	240.4	97.4
0	11489	240.4	96.4
0	11490	240.4	95.4
0	11491	240.4	94.4
0	11492	240.4	93.4
0	11493	240.4	92.4
0	11494	240.4	91.4
0	11495	240.4	90.4
0	11496	240.4	89.4
0	11497	240.4	88.4
0	11498	240.4	87.4
0	11499	240.4	86.4
0	11500	240.4	85.4
0	11501	240.4	84.4
0	11502	240.4	83.4
0	11503	240.4	82.4
0	11504	240.4	81.4
0	11505	240.4	80.4
0	11506	240.4	79.4
0	11507	240.4	78.4
0	11508	240.4	77.4
0	11509	240.4	76.4
0	11510	240.4	75.4
0	11511	240.4	74.4
0	11512	240.4	73.4
0	11513	240.4	72.4
0	11514	240.4	71.4
0	11515	240.4	70.4
0	11516	240.4	69.4
0	11517	240.4	68.4
0	11518	240.4	67.4
0	11519	240.4	66.4
0	11520	240.4	65.4
0	11521	240.4	64.4
0	11522	240.4	63.4
0	11523	240.4	62.4
0	11524	240.4	61.4
0	11525	240.4	60.4
0	11526	240.4	59.4
0	11527	240.4	58.4
0	11528	240.4	57.4
0	11529	240.4	56.4
0	11530	240.4	55.4
0	11531	240.4	54.4
0	11532	240.4	53.4
0	11533	240.4	52.4
0	11534	240.4	51.4
0	11535	240.4	50.4
0	11536	240.4	49.4
0	11537	240.4	48.4
0	11538	240.4	47.4
0	11539	240.4	46.4
0	11540	240.4	45.4
0	11541	240.4	44.4
0	11542	240.4	43.4
0	11543	240.4	42.4
0	11544	240.4	41.4
0	11545	240.4	40.4
0	11546	240.4	39.4
0	11547	240.4	38.4
0	11548	240.4	37.4
0	11549	240.4	36.4
0	11550	240.4	35.4
0	11551	240.4	34.4
0	11552	240.4	33.4
0	11553	240.4	32.4
0	11554	240.4	31.4
0	11555	240.4	30.4
0	11556	240.4	29.4
0	11557	240.4	28.4
0	11558	240.4	27.4
0	11559	240.4	26.4
0	11560	240.4	25.4
0	11561	240.4	24.4
0	11562	240.4	23.4
0	11563	240.4	22.4
0	11564	240.4	21.4
0	11565	240.4	20.4
0	11566	240.4	19.4
0	11567	240.4	18.4
0	11568	240.4	17.4
0	11569	240.4	16.4
0	11570	240.4	15.4
0	11571	240.4	14.4
0	11572	240.4	13.4
0	11573	240.4	12.4
0	11574	240.4	11.4
0	11575	240.4	10.4
0	11576	240.4	9.4
0	11577	240.4	8.4
0	11578	240.4	7.4
0	11579	240.4	6.4
0	11580	240.4	5.4
0	11581	240.4	4.4
0	11582	240.4	3.4
0	11583	240.4	2.4
0	11584	240.4	1.4
0	12533	241.4	1.4
0	12586	242.4	1.4
0	12639	243.4	1.4
0	12692	244.4	1.4
0	12751	245.4	1.4
0	12806	246.4	1.4
0	12861	247.4	1.4
0	12916	248.4	1.4
0	12971	249.4	1.4
0	13023	250.4	1.4
0	13233	252.4	2.4
0	13234	252.4	1.4
0	13408	253.4	1.4
0	13573	254.4	1.4
0	13627	255.4	1.4
0	14100	270.1	15.1
0	14101	270.1	14.1
0	14102	270.1	13.1
0	14103	270.1	12.1
0	14104	270.1	11.1
0	14105	270.1	10.1
0	14106	270.1	9.1
0	14107	270.1	8.1
0	14108	270.1	7.1
0	14109	270.1	6.1
0	14110	270.1	5.1
0	14111	270.1	4.1
0	14112	270.1	3.1
0	14113	270.1	2.1
0	14139	270.3	1.3
0	14173	271.3	1.3
0	14207	272.3	1.3
0	14241	273.3	1.3
0	14275	274.3	1.3
0	14309	275.3	1.3
0	14343	276.3	1.3
0	14379	277.3	1.3
0	14413	278.3	1.3
0	14447	279.3	1.3
0	14481	280.3	1.3
0	14515	281.3	1.3
0	14550	282.3	1.3
0	14583	283.3	1.3
0	14616	284.3	1.3
0	14649	285.3	1.3
0	14682	286.3	1.3
0	14715	287.3	1.3
0	14748	288.3	1.3
0	14781	289.3	1.3
0	14814	290.3	1.3
0	14847	291.3	1.3
0	14880	292.3	1.3
0	14913	293.3	1.3
0	14946	294.3	1.3
0	14979	295.3	1.3
0	15012	296.3	1.3
0	15031	297.3	1.3
0	16267	386.1	131.1
0	16268	386.1	130.1
0	16269	386.1	129.1
0	16270	386.1	128.1
0	16271	386.1	127.1
0	16272	386.1	126.1
0	16273	386.1	125.1
0	16274	386.1	124.1
0	16275	386.1	123.1
0	16276	386.1	122.1
0	16277	386.1	121.1
0	16278	386.1	120.1
0	16279	386.1	119.1
0	16280	386.1	118.1
0	16281	386.1	117.1
0	16282	386.1	116.1
0	16283	386.1	115.1
0	16284	386.1	114.1
0	16285	386.1	113.1
0	16286	386.1	112.1
0	16287	386.1	111.1
0	16288	386.1	110.1
0	16289	386.1	109.1
0	16290	386.1	108.1
0	16291	386.1	107.1
0	16292	386.1	106.1
0	16293	386.1	105.1
0	16294	386.1	104.1
0	16295	386.1	103.1
0	16296	386.1	102.1
0	23506	556.1	259.1
0	23507	556.1	258.1
0	23508	556.1	257.1
0	23509	556.1	256.1
0	23510	556.1	255.1
0	23511	556.1	254.1
0	23512	556.1	253.1
0	23513	556.1	252.1
0	23514	556.1	251.1
0	23515	556.1	250.1
0	23516	556.1	249.1
0	23517	556.1	248.1
0	23518	556.1	247.1
0	23519	556.1	246.1
0	23520	556.1	245.1
0	23521	556.1	244.1
0	23522	556.1	243.1
0	23523	556.1	242.1
0	23524	556.1	241.1
0	23525	556.1	240.1
0	23526	556.1	239.1
0	23527	556.1	238.1
0	23528	556.1	237.1
0	23529	556.1	236.1
0	23530	556.1	235.1
0	23531	556.1	234.1
0	23532	556.1	233.1
0	23533	556.1	232.1
0	23534	556.1	231.1
0	23535	556.1	230.1
0	23536	556.1	229.1
0	23537	556.1	228.1
0	23538	556.1	227.1
0	23539	556.1	226.1
0	23540	556.1	225.1
0	23541	556.1	224.1
0	23542	556.1	223.1
0	23543	556.1	222.1
0	23544	556.1	221.1
0	23545	556.1	220.1
0	23546	556.1	219.1
0	23547	556.1	218.1
0	23548	556.1	217.1
0	23549	556.1	216.1
0	23550	556.1	215.1
0	23551	556.1	214.1
0	23552	556.1	213.1
0	23553	556.1	212.1
0	23554	556.1	211.1
0	23555	556.1	210.1
0	23556	556.1	209.1
0	23557	556.1	208.1
0	23558	556.1	207.1
0	23559	556.1	206.1
0	23560	556.1	205.1
0	23561	556.1	204.1
0	23562	556.1	203.1
0	23563	556.1	202.1
0	23564	556.1	201.1
0	23565	556.1	200.1
0	23566	556.1	199.1
0	23567	556.1	198.1
0	23568	556.1	197.1
0	23569	556.1	196.1
0	23570	556.1	195.1
0	23571	556.1	194.1
0	23572	556.1	193.1
0	23573	556.1	192.1
0	23574	556.1	191.1
0	23575	556.1	190.1
0	23576	556.1	189.1
0	23577	556.1	188.1
0	23578	556.1	187.1
0	23579	556.1	186.1
0	23580	556.1	185.1
0	23581	556.1	184.1
0	23582	556.1	183.1
0	23583	556.1	182.1
0	23584	556.1	181.1
0	23585	556.1	180.1
0	23586	556.1	179.1
0	23587	556.1	178.1
0	23588	556.1	177.1
0	23589	556.1	176.1
0	23590	556.1	175.1
0	23591	556.1	174.1
0	23592	556.1	173.1
0	23593	556.1	172.1
0	23594	556.1	171.1
0	23595	556.1	170.1
0	23596	556.1	169.1
0	23597	556.1	168.1
0	23598	556.1	167.1
0	23599	556.1	166.1
0	23600	556.1	165.1
0	23601	556.1	164.1
0	23602	556.1	163.1
0	23603	556.1	162.1
0	23604	556.1	161.1
0	23605	556.1	160.1
0	23606	556.1	159.1
0	23607	556.1	158.1
0	23608	556.1	157.1
0	23609	556.1	156.1
0	23610	556.1	155.1
0	23611	556.1	154.1
0	23612	556.1	153.1
0	23613	556.1	152.1
0	23614	556.1	151.1
0	23615	556.1	150.1
0	23616	556.1	149.1
0	23617	556.1	148.1
0	23618	556.1	147.1
0	23619	556.1	146.1
0	23620	556.1	145.1
0	23621	556.1	144.1
0	23622	556.1	143.1
0	23623	556.1	142.1
0	23624	556.1	141.1
0	23625	556.1	140.1
0	23626	556.1	139.1
0	23627	556.1	138.1
0	23628	556.1	137.1
0	23629	556.1	136.1
0	23630	556.1	135.1
0	23631	556.1	134.1
0	23632	556.1	133.1
0	23633	556.1	132.1
0	23634	556.1	131.1
0	23635	556.1	130.1
0	23636	556.1	129.1
0	23637	556.1	128.1
0	23638	556.1	127.1
0	23639	556.1	126.1
0	23640	556.1	125.1
0	23641	556.1	124.1
0	23642	556.1	123.1
0	23643	556.1	122.1
0	23644	556.1	121.1
0	23645	556.1	120.1
0	23646	556.1	119.1
0	23647	556.1	118.1
0	23648	556.1	117.1
0	23649	556.1	116.1
0	23650	556.1	115.1
0	23651	556.1	114.1
0	23652	556.1	113.1
0	23653	556.1	112.1
0	23654	556.1	111.1
0	23655	556.1	110.1
0	23656	556.1	109.1
0	23657	556.1	108.1
0	23658	556.1	107.1
0	23659	556.1	106.1
0	23660	556.1	105.1
0	23661	556.1	104.1
0	23662	556.1	103.1
0	23663	556.1	102.1
0	23664	556.1	101.1
0	23665	556.1	100.1
0	23666	556.1	99.1
0	23667	556.1	98.1
0	23668	556.1	97.1
0	23669	556.1	96.1
0	23670	556.1	95.1
0	23671	556.1	94.1
0	23672	556.1	93.1
0	23673	556.1	92.1
0	23674	556.1	91.1
0	23675	556.1	90.1
0	23676	556.1	89.1
0	23677	556.1	88.1
0	23678	556.1	87.1
0	23679	556.1	86.1
0	23680	556.1	85.1
0	23681	556.1	84.1
0	23682	556.1	83.1
0	23683	556.1	82.1
0	23684	556.1	81.1
0	23685	556.1	80.1
0	23686	556.1	79.1
0	23687	556.1	78.1
0	23688	556.1	77.1
0	23689	556.1	76.1
0	23690	556.1	75.1
0	23691	556.1	74.1
0	23692	556.1	73.1
0	23693	556.1	72.1
0	23694	556.1	71.1
0	23695	556.1	70.1
0	23696	556.1	69.1
0	23697	556.1	68.1
0	23698	556.1	67.1
0	23699	556.1	66.1
0	23700	556.1	65.1
0	23701	556.1	64.1
0	23702	556.1	63.1
0	23703	556.1	62.1
0	23704	556.1	61.1
0	23705	556.1	60.1
0	23706	556.1	59.1
0	23707	556.1	58.1
0	23708	556.1	57.1
0	23709	556.1	56.1
0	23710	556.1	55.1
0	23711	556.1	54.1
0	23712	556.1	53.1
0	23713	556.1	52.1
0	23714	556.1	51.1
0	23715	556.1	50.1
0	23716	556.1	49.1
0	23717	556.1	48.1
0	23718	556.1	47.1
0	23719	556.1	46.1
0	23720	556.1	45.1
0	23721	556.1	44.1
0	23722	556.1	43.1
0	23723	556.1	42.1
0	23724	556.1	41.1
0	23725	556.1	40.1
0	23726	556.1	39.1
0	23727	556.1	38.1
0	23728	556.1	37.1
0	23729	556.1	36.1
0	23730	556.1	35.1
0	23731	556.1	34.1
0	23732	556.1	33.1
0	23733	556.1	32.1
0	23734	556.1	31.1
0	23735	556.1	30.1
0	23736	556.1	29.1
0	23737	556.1	28.1
0	23738	556.1	27.1
0	23739	556.1	26.1
0	23740	556.1	25.1
0	23741	556.1	24.1
0	23742	556.1	23.1
0	23743	556.1	22.1
0	23744	556.1	21.1
0	23745	556.1	20.1
0	23746	556.1	19.1
0	23747	556.1	18.1
0	23748	556.1	17.1
0	23749	556.1	16.1
0	23750	556.1	15.1
0	23751	556.1	14.1
0	23752	556.1	13.1
0	23753	556.1	12.1
0	23754	556.1	11.1
0	23755	556.1	10.1
0	23756	556.1	9.1
0	23757	556.1	8.1
0	23758	556.1	7.1
0	23759	556.1	6.1
0	23760	556.1	5.1
0	23761	556.1	4.1
0	23762	556.1	3.1
0	23763	556.1	2.1
0	23789	556.5	1.5
0	23826	557.5	1.5
0	23870	558.5	1.5
0	23909	559.5	1.5
0	23948	560.5	1.5
0	23987	561.5	1.5
0	24026	562.5	1.5
0	24065	563.5	1.5
0	24104	564.5	1.5
0	24143	565.5	1.5
0	24182	566.5	1.5
0	24221	567.5	1.5
0	24260	568.5	1.5
0	24299	569.5	1.5
0	24338	570.5	1.5
0	24377	571.5	1.5
0	24416	572.5	1.5
0	24461	573.5	1.5
0	24502	574.5	1.5
0	24543	575.5	1.5
0	24584	576.5	1.5
0	24629	577.5	1.5
0	24668	578.5	1.5
0	24752	580.5	2.5
0	24753	580.5	1.5
0	24796	581.5	1.5
0	24839	582.5	1.5
0	24880	583.5	1.5
0	24921	584.5	1.5
0	24962	585.5	1.5
0	25003	586.5	1.5
0	25044	587.5	1.5
0	25085	588.5	1.5
0	25126	589.5	1.5
0	25167	590.5	1.5
0	25208	591.5	1.5
0	28193	592.5	1.5
0	28247	593.5	1.5
0	28306	594.5	1.5
0	28362	595.5	1.5
0	28418	596.5	1.5
0	28474	597.5	1.5
0	28530	598.5	1.5
0	28580	599.5	1.5
0	28698	601.6	2.6
0	28699	601.6	1.6
0	28774	602.6	1.6
0	28845	603.6	1.6
0	28910	604.6	1.6
0	28975	605.6	1.6
0	29034	606.6	1.6
0	29130	608.4	1.4
0	29192	609.4	1.4
0	29276	610.4	1.4
0	29322	611	5
0	29382	611.4	1.4
0	29463	612.4	1.4
0	29542	613.4	1.4
0	29621	614.4	1.4
0	29703	615.4	1.4
0	29789	616.4	1.4
0	29871	617.4	1.4
0	30875	640.1	23.1
0	30876	640.1	22.1
0	30877	640.1	21.1
0	30878	640.1	20.1
0	30879	640.1	19.1
0	30880	640.1	18.1
0	30881	640.1	17.1
0	30882	640.1	16.1
0	30883	640.1	15.1
0	30884	640.1	14.1
0	30885	640.1	13.1
0	30886	640.1	12.1
0	30887	640.1	11.1
0	30888	640.1	10.1
0	30889	640.1	9.1
0	30890	640.1	8.1
0	30891	640.1	7.1
0	30892	640.1	6.1
0	30893	640.1	5.1
0	30894	640.1	4.1
0	30895	640.1	3.1
0	33161	683.4	45.4
0	33162	683.4	44.4
0	33163	683.4	43.4
0	33164	683.4	42.4
0	33165	683.4	41.4
0	33166	683.4	40.4
0	33167	683.4	39.4
0	33168	683.4	38.4
0	33169	683.4	37.4
0	33170	683.4	36.4
0	33171	683.4	35.4
0	33172	683.4	34.4
0	33173	683.4	33.4
0	33174	683.4	32.4
0	33175	683.4	31.4
0	33176	683.4	30.4
0	33177	683.4	29.4
0	33178	683.4	28.4
0	33179	683.4	27.4
0	33180	683.4	26.4
0	33181	683.4	25.4
0	33182	683.4	24.4
0	33183	683.4	23.4
0	33184	683.4	22.4
0	33185	683.4	21.4
0	33186	683.4	20.4
0	33187	683.4	19.4
0	33188	683.4	18.4
0	33189	683.4	17.4
0	33190	683.4	16.4
0	33191	683.4	15.4
0	33192	683.4	14.4
0	33193	683.4	13.4
0	33194	683.4	12.4
0	33195	683.4	11.4
0	33196	683.4	10.4
0	33197	683.4	9.4
0	33198	683.4	8.4
0	33199	683.4	7.4
0	33200	683.4	6.4
0	33201	683.4	5.4
0	33202	683.4	4.4
0	33203	683.4	3.4
0	33204	683.4	2.4
0	33440	683.5	1.5
0	33486	684.5	1.5
0	33622	685.5	1.5
0	33673	686.5	1.5
0	33721	687.5	1.5
0	33769	688.5	1.5
0	33817	689.5	1.5
0	33865	690.5	1.5
0	33913	691.5	1.5
0	33961	692.5	1.5
0	34009	693.5	1.5
0	34058	694.5	1.5
0	34108	695.5	1.5
0	34156	696.5	1.5
0	34201	697.5	1.5
0	34252	698.5	1.5
0	34296	699.5	1.5
0	34350	700.5	1.5
0	34400	701.5	1.5
0	34448	702.5	1.5
0	34496	703.5	1.5
0	34544	704.5	1.5
0	34592	705.5	1.5
0	34639	706.5	1.5
0	34690	707.5	1.5
0	34739	708.5	1.5
0	34794	709.5	1.5
0	34843	710.5	1.5
0	34896	711.5	1.5
0	34945	712.5	1.5
0	34994	713.5	1.5
0	35043	714.5	1.5
0	35092	715.5	1.5
0	35141	716.5	1.5
0	35190	717.5	1.5
0	35237	718.5	1.5
0	35284	719.5	1.5
0	35331	720.5	1.5
0	35378	721.5	1.5
0	35425	722.5	1.5
0	35775	733.1	11.1
0	35776	733.1	10.1
0	35777	733.1	9.1
0	35778	733.1	8.1
0	35779	733.1	7.1
0	35780	733.1	6.1
0	35781	733.1	5.1
0	35782	733.1	4.1
0	35783	733.1	3.1
0	37564	771.3	38.3
0	37565	771.3	39.3
0	37566	771.3	40.3
0	37567	771.3	37.3
0	37568	771.3	36.3
0	37569	771.3	35.3
0	37570	771.3	34.3
0	37571	771.3	33.3
0	37572	771.3	32.3
0	37573	771.3	31.3
0	37574	771.3	30.3
0	37575	771.3	29.3
0	37576	771.3	28.3
0	37577	771.3	27.3
0	37578	771.3	26.3
0	37579	771.3	25.3
0	37580	771.3	24.3
0	37581	771.3	23.3
0	37582	771.3	22.3
0	37583	771.3	21.3
0	37584	771.3	20.3
0	37585	771.3	19.3
0	37586	771.3	18.3
0	37587	771.3	17.3
0	37588	771.3	16.3
0	37589	771.3	15.3
0	37590	771.3	14.3
0	37591	771.3	13.3
0	37592	771.3	12.3
0	37593	771.3	11.3
0	37594	771.3	10.3
0	37595	771.3	9.3
0	37596	771.3	8.3
0	37597	771.3	7.3
0	37598	771.3	6.3
0	37599	771.3	5.3
0	37600	771.3	4.3
0	37601	771.3	3.3
0	37602	771.3	2.3
0	37812	771.4	1.4
0	38200	824.4	101.4
0	38241	825.4	101.4
0	38282	826.4	101.4
0	38323	827.4	101.4
0	38369	828.4	101.4
0	38411	829.4	101.4
0	38453	830.4	101.4
0	38489	831.4	101.4
0	38548	834.4	103.4
0	40789	851.2	80.2
0	40790	851.2	79.2
0	40791	851.2	78.2
0	40792	851.2	77.2
0	40793	851.2	76.2
0	40794	851.2	75.2
0	40795	851.2	74.2
0	40796	851.2	73.2
0	40797	851.2	72.2
0	40798	851.2	71.2
0	40799	851.2	70.2
0	40800	851.2	69.2
0	40801	851.2	68.2
0	40802	851.2	67.2
0	40803	851.2	66.2
0	40804	851.2	65.2
0	40805	851.2	64.2
0	40806	851.2	63.2
0	40807	851.2	62.2
0	40808	851.2	61.2
0	40809	851.2	60.2
0	40810	851.2	59.2
0	40811	851.2	58.2
0	40812	851.2	57.2
0	40813	851.2	56.2
0	40814	851.2	55.2
0	40815	851.2	54.2
0	40816	851.2	53.2
0	40817	851.2	52.2
0	40818	851.2	51.2
0	40819	851.2	50.2
0	40820	851.2	49.2
0	40821	851.2	48.2
0	40822	851.2	47.2
0	40823	851.2	46.2
0	40824	851.2	45.2
0	40825	851.2	44.2
0	40826	851.2	43.2
0	40827	851.2	42.2
0	40828	851.2	41.2
0	40829	851.2	40.2
0	40830	851.2	39.2
0	40831	851.2	38.2
0	40832	851.2	37.2
0	40833	851.2	36.2
0	40834	851.2	35.2
0	40835	851.2	34.2
0	40836	851.2	33.2
0	40837	851.2	32.2
0	40838	851.2	31.2
0	40839	851.2	30.2
0	40840	851.2	29.2
0	40841	851.2	28.2
0	40842	851.2	27.2
0	40843	851.2	26.2
0	40844	851.2	25.2
0	40845	851.2	24.2
0	40846	851.2	23.2
0	40847	851.2	22.2
0	40848	851.2	21.2
0	40849	851.2	20.2
0	40850	851.2	19.2
0	40851	851.2	18.2
0	40852	851.2	17.2
0	40853	851.2	16.2
0	40854	851.2	15.2
0	40855	851.2	14.2
0	40856	851.2	13.2
0	40857	851.2	12.2
0	40858	851.2	11.2
0	40859	851.2	10.2
0	40860	851.2	9.2
0	40861	851.2	8.2
0	40862	851.2	7.2
0	40863	851.2	6.2
0	40864	851.2	5.2
0	40865	851.2	4.2
0	40866	851.2	3.2
0	40867	851.2	2.2
0	41276	851.3	1.3
0	41477	852.3	1.3
0	41520	853.3	1.3
0	41563	854.3	1.3
0	41606	855.3	1.3
0	41649	856.3	1.3
0	41692	857.3	1.3
0	41735	858.3	1.3
0	41778	859.3	1.3
0	41822	860.3	1.3
0	41864	861.3	1.3
0	48358	1018.1	157.1
0	48359	1018.1	156.1
0	48360	1018.1	155.1
0	48361	1018.1	154.1
0	48362	1018.1	153.1
0	48363	1018.1	152.1
0	48364	1018.1	151.1
0	48365	1018.1	150.1
0	48366	1018.1	149.1
0	48367	1018.1	148.1
0	48368	1018.1	147.1
0	48369	1018.1	146.1
0	48370	1018.1	145.1
0	48371	1018.1	144.1
0	48372	1018.1	143.1
0	48373	1018.1	142.1
0	48374	1018.1	141.1
0	48375	1018.1	140.1
0	48376	1018.1	139.1
0	48377	1018.1	138.1
0	48378	1018.1	137.1
0	48379	1018.1	136.1
0	48380	1018.1	135.1
0	48381	1018.1	134.1
0	48382	1018.1	133.1
0	48383	1018.1	132.1
0	48384	1018.1	131.1
0	48385	1018.1	130.1
0	48386	1018.1	129.1
0	48387	1018.1	128.1
0	48388	1018.1	127.1
0	48389	1018.1	126.1
0	48390	1018.1	125.1
0	48391	1018.1	124.1
0	48392	1018.1	123.1
0	48393	1018.1	122.1
0	48394	1018.1	121.1
0	48395	1018.1	120.1
0	48396	1018.1	119.1
0	48397	1018.1	118.1
0	48398	1018.1	117.1
0	48399	1018.1	116.1
0	48400	1018.1	115.1
0	48401	1018.1	114.1
0	48402	1018.1	113.1
0	48403	1018.1	112.1
0	48404	1018.1	111.1
0	48405	1018.1	110.1
0	48406	1018.1	109.1
0	48407	1018.1	108.1
0	48408	1018.1	107.1
0	48409	1018.1	106.1
0	48410	1018.1	105.1
0	48411	1018.1	104.1
0	48412	1018.1	103.1
0	48413	1018.1	102.1
0	48414	1018.1	101.1
0	48415	1018.1	100.1
0	48416	1018.1	99.1
0	48417	1018.1	98.1
0	48418	1018.1	97.1
0	48419	1018.1	96.1
0	48420	1018.1	95.1
0	48421	1018.1	94.1
0	48422	1018.1	93.1
0	48423	1018.1	92.1
0	48424	1018.1	91.1
0	48425	1018.1	90.1
0	48426	1018.1	89.1
0	48427	1018.1	88.1
0	48428	1018.1	87.1
0	48429	1018.1	86.1
0	48430	1018.1	85.1
0	48431	1018.1	84.1
0	48432	1018.1	83.1
0	48433	1018.1	82.1
0	48434	1018.1	81.1
0	48435	1018.1	80.1
0	48436	1018.1	79.1
0	48437	1018.1	78.1
0	48438	1018.1	77.1
0	48439	1018.1	76.1
0	48440	1018.1	75.1
0	48441	1018.1	74.1
0	48442	1018.1	73.1
0	48443	1018.1	72.1
0	48444	1018.1	71.1
0	48445	1018.1	70.1
0	48446	1018.1	69.1
0	48447	1018.1	68.1
0	48448	1018.1	67.1
0	48449	1018.1	66.1
0	48450	1018.1	65.1
0	48451	1018.1	64.1
0	48452	1018.1	63.1
0	48453	1018.1	62.1
0	48454	1018.1	61.1
0	48455	1018.1	60.1
0	48456	1018.1	59.1
0	48457	1018.1	58.1
0	48458	1018.1	57.1
0	48459	1018.1	56.1
0	48460	1018.1	55.1
0	48461	1018.1	54.1
0	48462	1018.1	53.1
0	48463	1018.1	52.1
0	48464	1018.1	51.1
0	48465	1018.1	50.1
0	48466	1018.1	49.1
0	48467	1018.1	47.1
0	48468	1018.1	46.1
0	48469	1018.1	45.1
0	48470	1018.1	44.1
0	48471	1018.1	43.1
0	48472	1018.1	42.1
0	48473	1018.1	41.1
0	48474	1018.1	40.1
0	48475	1018.1	39.1
0	48476	1018.1	38.1
0	48477	1018.1	37.1
0	48478	1018.1	36.1
0	48479	1018.1	35.1
0	48480	1018.1	34.1
0	48481	1018.1	33.1
0	48482	1018.1	32.1
0	48483	1018.1	31.1
0	48484	1018.1	30.1
0	48485	1018.1	29.1
0	48486	1018.1	28.1
0	48487	1018.1	27.1
0	48488	1018.1	26.1
0	48489	1018.1	25.1
0	48490	1018.1	24.1
0	48491	1018.1	23.1
0	48492	1018.1	22.1
0	48493	1018.1	21.1
0	48494	1018.1	20.1
0	48495	1018.1	19.1
0	48496	1018.1	18.1
0	48497	1018.1	17.1
0	48498	1018.1	16.1
0	48499	1018.1	15.1
0	48500	1018.1	14.1
0	48501	1018.1	13.1
0	48502	1018.1	12.1
0	48503	1018.1	11.1
0	48504	1018.1	10.1
0	48505	1018.1	9.1
0	48506	1018.1	8.1
0	48507	1018.1	7.1
0	48508	1018.1	6.1
0	48509	1018.1	5.1
0	48510	1018.1	4.1
0	48511	1018.1	3.1
0	48512	1018.1	2.1
0	49315	1018.3	1.3
0	49357	1019.3	1.3
0	49397	1020.3	1.3
0	49437	1021.3	1.3
0	49477	1022.3	1.3
0	49517	1023.3	1.3
0	49557	1024.3	1.3
0	49597	1025.3	1.3
0	49637	1026.3	1.3
0	49662	1027.3	1.3
0	51439	1070.1	32.1
0	51440	1070.1	31.1
0	51441	1070.1	100.1
0	51442	1070.1	43.1
0	51443	1070.1	42.1
0	51444	1070.1	41.1
0	51445	1070.1	40.1
0	51446	1070.1	39.1
0	51447	1070.1	38.1
0	51448	1070.1	37.1
0	51449	1070.1	36.1
0	51450	1070.1	35.1
0	51451	1070.1	34.1
0	51452	1070.1	33.1
0	51453	1070.1	30.1
0	51454	1070.1	29.1
0	51455	1070.1	28.1
0	51456	1070.1	27.1
0	51457	1070.1	26.1
0	51458	1070.1	25.1
0	51459	1070.1	24.1
0	51460	1070.1	23.1
0	51461	1070.1	22.1
0	51462	1070.1	21.1
0	51463	1070.1	20.1
0	51464	1070.1	19.1
0	51465	1070.1	18.1
0	51466	1070.1	17.1
0	51467	1070.1	16.1
0	51468	1070.1	15.1
0	51469	1070.1	14.1
0	51470	1070.1	13.1
0	51471	1070.1	12.1
0	51472	1070.1	11.1
0	51473	1070.1	10.1
0	51474	1070.1	9.1
0	51475	1070.1	8.1
0	51476	1070.1	7.1
0	51477	1070.1	6.1
0	51478	1070.1	5.1
0	51479	1070.1	4.1
0	51480	1070.1	3.1
0	51481	1070.1	2.1
0	51721	1070.5	1.5
0	51763	1071.5	1.5
0	51805	1072.5	1.5
0	51847	1073.5	1.5
0	51889	1074.5	1.5
0	51931	1075.5	1.5
0	51978	1076.5	1.5
0	52021	1077.5	1.5
0	52064	1078.5	1.5
0	52107	1079.5	1.5
0	52150	1080.5	1.5
0	52193	1081.5	1.5
0	52235	1082.5	1.5
0	52279	1083.5	1.5
0	52322	1084.5	1.5
0	52365	1085.5	1.5
0	52408	1086.5	1.5
0	52451	1087.5	1.5
0	52494	1088.5	1.5
0	52537	1089.5	1.5
0	52580	1090.5	1.5
0	52608	1091.5	1.5
0	54452	1143.1	52.1
0	54453	1143.1	51.1
0	54454	1143.1	50.1
0	54455	1143.1	49.1
0	54456	1143.1	48.1
0	54457	1143.1	47.1
0	54458	1143.1	46.1
0	54459	1143.1	45.1
0	54460	1143.1	44.1
0	54461	1143.1	43.1
0	54462	1143.1	42.1
0	54463	1143.1	41.1
0	54464	1143.1	40.1
0	54465	1143.1	39.1
0	54466	1143.1	38.1
0	54467	1143.1	37.1
0	54468	1143.1	36.1
0	54469	1143.1	35.1
0	54470	1143.1	34.1
0	54471	1143.1	33.1
0	54472	1143.1	32.1
0	54473	1143.1	31.1
0	54474	1143.1	30.1
0	54475	1143.1	29.1
0	54476	1143.1	28.1
0	54477	1143.1	27.1
0	54478	1143.1	26.1
0	54479	1143.1	25.1
0	54480	1143.1	24.1
0	54481	1143.1	23.1
0	54482	1143.1	22.1
0	54483	1143.1	21.1
0	54484	1143.1	20.1
0	54485	1143.1	19.1
0	54486	1143.1	18.1
0	54487	1143.1	17.1
0	54488	1143.1	16.1
0	54489	1143.1	15.1
0	54490	1143.1	14.1
0	54491	1143.1	13.1
0	54492	1143.1	12.1
0	54493	1143.1	11.1
0	54494	1143.1	10.1
0	54495	1143.1	9.1
0	54496	1143.1	8.1
0	54497	1143.1	7.1
0	54498	1143.1	6.1
0	54499	1143.1	5.1
0	54500	1143.1	4.1
0	54501	1143.1	3.1
0	54502	1143.1	2.1
0	54783	1143.5	1.5
0	54827	1144.5	1.5
0	54871	1145.5	1.5
0	54914	1146.5	1.5
0	54957	1147.5	1.5
0	55000	1148.5	1.5
0	55043	1149.5	1.5
0	55086	1150.5	1.5
0	55129	1151.5	1.5
0	55172	1152.5	1.5
0	55215	1153.5	1.5
0	55258	1154.5	1.5
0	55301	1155.5	1.5
0	55350	1156.5	1.5
0	55395	1157.5	1.5
0	55440	1158.5	1.5
0	55485	1159.5	1.5
0	55530	1160.5	1.5
0	55575	1161.5	1.5
0	55624	1162.5	1.5
0	55688	1163.5	1.5
0	55735	1164.5	1.5
0	55782	1165.5	1.5
0	55829	1166.5	1.5
0	55880	1167.5	1.5
0	55928	1168.5	1.5
0	55977	1169.5	1.5
0	56066	1170.3	1.3
0	56115	1171.3	1.3
0	56162	1172.3	1.3
0	56209	1173.3	1.3
0	56256	1174.3	1.3
0	56303	1175.3	1.3
0	56350	1176.3	1.3
0	56397	1177.3	1.3
0	56444	1178.3	1.3
0	56491	1179.3	1.3
0	56538	1180.3	1.3
0	56580	1181.3	1.3
0	56647	1183.5	1.5
0	56731	1185.5	2.5
0	56732	1185.5	1.5
0	56798	1186.5	1.5
0	60412	1271.1	85.1
0	60413	1271.1	90.1
0	60414	1271.1	84.1
0	60415	1271.1	83.1
0	60416	1271.1	82.1
0	60417	1271.1	81.1
0	60418	1271.1	80.1
0	60419	1271.1	79.1
0	60420	1271.1	78.1
0	60421	1271.1	77.1
0	60422	1271.1	76.1
0	60423	1271.1	75.1
0	60424	1271.1	74.1
0	60425	1271.1	73.1
0	60426	1271.1	72.1
0	60427	1271.1	71.1
0	60428	1271.1	70.1
0	60429	1271.1	69.1
0	60430	1271.1	68.1
0	60431	1271.1	67.1
0	60432	1271.1	66.1
0	60433	1271.1	65.1
0	60434	1271.1	64.1
0	60435	1271.1	63.1
0	60436	1271.1	62.1
0	60437	1271.1	61.1
0	60438	1271.1	60.1
0	60439	1271.1	59.1
0	60440	1271.1	58.1
0	60441	1271.1	57.1
0	60442	1271.1	56.1
0	60443	1271.1	55.1
0	60444	1271.1	54.1
0	60445	1271.1	53.1
0	60446	1271.1	52.1
0	60447	1271.1	51.1
0	60448	1271.1	50.1
0	60449	1271.1	49.1
0	60450	1271.1	48.1
0	60451	1271.1	47.1
0	60452	1271.1	46.1
0	60453	1271.1	45.1
0	60454	1271.1	44.1
0	60455	1271.1	43.1
0	60456	1271.1	42.1
0	60457	1271.1	41.1
0	60458	1271.1	40.1
0	60459	1271.1	39.1
0	60460	1271.1	38.1
0	60461	1271.1	37.1
0	60462	1271.1	36.1
0	60463	1271.1	35.1
0	60464	1271.1	34.1
0	60465	1271.1	33.1
0	60466	1271.1	32.1
0	60467	1271.1	31.1
0	60468	1271.1	30.1
0	60469	1271.1	29.1
0	60470	1271.1	28.1
0	60471	1271.1	27.1
0	60472	1271.1	26.1
0	60473	1271.1	25.1
0	60474	1271.1	24.1
0	60475	1271.1	23.1
0	60476	1271.1	22.1
0	60477	1271.1	21.1
0	60478	1271.1	20.1
0	60479	1271.1	19.1
0	60480	1271.1	18.1
0	60481	1271.1	17.1
0	60482	1271.1	16.1
0	60483	1271.1	15.1
0	60484	1271.1	14.1
0	60485	1271.1	13.1
0	60486	1271.1	12.1
0	60487	1271.1	11.1
0	60488	1271.1	10.1
0	60489	1271.1	9.1
0	60490	1271.1	8.1
0	60491	1271.1	7.1
0	60492	1271.1	6.1
0	60493	1271.1	5.1
0	60494	1271.1	4.1
0	60495	1271.1	3.1
0	60496	1271.1	2.1
0	68865	1325.1	54.1
0	68866	1325.1	43.1
0	68867	1325.1	32.1
0	68868	1325.1	45.1
0	68869	1325.1	34.1
0	68870	1325.1	23.1
0	68871	1325.1	47.1
0	68872	1325.1	36.1
0	68873	1325.1	25.1
0	68874	1325.1	49.1
0	68875	1325.1	38.1
0	68876	1325.1	27.1
0	68877	1325.1	51.1
0	68878	1325.1	40.1
0	68879	1325.1	29.1
0	68880	1325.1	53.1
0	68881	1325.1	42.1
0	68882	1325.1	31.1
0	68883	1325.1	55.1
0	68884	1325.1	44.1
0	68885	1325.1	33.1
0	68886	1325.1	22.1
0	68887	1325.1	46.1
0	68888	1325.1	35.1
0	68889	1325.1	24.1
0	68890	1325.1	48.1
0	68891	1325.1	37.1
0	68892	1325.1	26.1
0	68893	1325.1	50.1
0	68894	1325.1	39.1
0	68895	1325.1	28.1
0	68896	1325.1	52.1
0	68897	1325.1	41.1
0	68898	1325.1	30.1
0	68899	1325.1	21.1
0	68900	1325.1	20.1
0	68901	1325.1	19.1
0	68902	1325.1	18.1
0	68903	1325.1	17.1
0	68904	1325.1	16.1
0	68905	1325.1	15.1
0	68906	1325.1	14.1
0	68907	1325.1	13.1
0	68908	1325.1	12.1
0	68909	1325.1	11.1
0	68910	1325.1	10.1
0	68911	1325.1	9.1
0	68912	1325.1	8.1
0	68913	1325.1	7.1
0	68914	1325.1	6.1
0	68915	1325.1	5.1
0	68916	1325.1	4.1
0	68917	1325.1	3.1
0	68918	1325.1	2.1
0	69488	1325.3	1.3
0	69538	1326.3	1.3
0	69588	1327.3	1.3
0	69638	1328.3	1.3
0	69688	1329.3	1.3
0	69741	1330.3	1.3
0	69794	1331.3	1.3
0	69832	1332.3	1.3
0	69870	1333.3	1.3
0	69928	1334.3	1.3
0	69976	1335.3	1.3
0	70022	1336.3	1.3
0	70069	1337.3	1.3
0	70115	1338.3	1.3
0	70162	1339.3	1.3
0	70207	1340.3	1.3
0	70256	1341.3	1.3
0	70306	1342.3	1.3
0	70352	1343.3	1.3
0	70400	1344.3	1.3
0	70453	1345.3	1.3
0	70500	1346.3	1.3
0	70547	1347.3	1.3
0	70594	1348.3	1.3
0	70641	1349.3	1.3
0	70682	1350.3	1.3
0	71081	1360.2	10.2
0	71082	1360.2	9.2
0	71083	1360.2	8.2
0	71084	1360.2	7.2
0	71085	1360.2	6.2
0	71086	1360.2	5.2
0	71087	1360.2	4.2
0	71088	1360.2	3.2
0	74806	1451.1	93.1
0	74807	1451.1	92.1
0	74808	1451.1	91.1
0	74809	1451.1	90.1
0	74810	1451.1	89.1
0	74811	1451.1	88.1
0	74812	1451.1	87.1
0	74813	1451.1	86.1
0	74814	1451.1	85.1
0	74815	1451.1	84.1
0	74816	1451.1	83.1
0	74817	1451.1	82.1
0	74818	1451.1	81.1
0	74819	1451.1	80.1
0	74820	1451.1	79.1
0	74821	1451.1	78.1
0	74822	1451.1	77.1
0	74823	1451.1	76.1
0	74824	1451.1	75.1
0	74825	1451.1	74.1
0	74826	1451.1	73.1
0	74827	1451.1	72.1
0	74828	1451.1	71.1
0	74829	1451.1	70.1
0	74830	1451.1	69.1
0	74831	1451.1	68.1
0	74832	1451.1	67.1
0	74833	1451.1	66.1
0	74834	1451.1	65.1
0	74835	1451.1	64.1
0	74836	1451.1	63.1
0	74837	1451.1	62.1
0	74838	1451.1	61.1
0	74839	1451.1	60.1
0	74840	1451.1	59.1
0	74841	1451.1	58.1
0	74842	1451.1	57.1
0	74843	1451.1	56.1
0	74844	1451.1	55.1
0	74845	1451.1	54.1
0	74846	1451.1	53.1
0	74847	1451.1	52.1
0	74848	1451.1	51.1
0	74849	1451.1	50.1
0	74850	1451.1	49.1
0	74851	1451.1	48.1
0	74852	1451.1	47.1
0	74853	1451.1	46.1
0	74854	1451.1	45.1
0	74855	1451.1	44.1
0	74856	1451.1	43.1
0	74857	1451.1	42.1
0	74858	1451.1	41.1
0	74859	1451.1	40.1
0	74860	1451.1	39.1
0	74861	1451.1	38.1
0	74862	1451.1	37.1
0	74863	1451.1	36.1
0	74864	1451.1	35.1
0	74865	1451.1	34.1
0	74866	1451.1	33.1
0	74867	1451.1	32.1
0	74868	1451.1	31.1
0	74869	1451.1	30.1
0	74870	1451.1	29.1
0	74871	1451.1	28.1
0	74872	1451.1	27.1
0	74873	1451.1	26.1
0	74874	1451.1	25.1
0	74875	1451.1	24.1
0	74876	1451.1	23.1
0	74877	1451.1	22.1
0	74878	1451.1	21.1
0	74879	1451.1	20.1
0	74880	1451.1	19.1
0	74881	1451.1	18.1
0	74882	1451.1	17.1
0	74883	1451.1	16.1
0	74884	1451.1	15.1
0	74885	1451.1	14.1
0	74886	1451.1	13.1
0	74887	1451.1	12.1
0	74888	1451.1	11.1
0	74889	1451.1	10.1
0	74890	1451.1	9.1
0	74891	1451.1	8.1
0	74892	1451.1	7.1
0	74893	1451.1	6.1
0	74894	1451.1	5.1
0	74895	1451.1	4.1
0	74896	1451.1	3.1
0	74897	1451.1	2.1
0	75383	1451.5	1.5
0	75425	1452.5	1.5
0	75467	1453.5	1.5
0	75509	1454.5	1.5
0	75551	1455.5	1.5
0	75593	1456.5	1.5
0	75635	1457.5	1.5
0	75670	1458.5	1.5
0	75815	1462.4	4.4
0	75816	1462.4	3.4
0	75817	1462.4	2.4
0	75846	1462.5	1.5
0	75885	1463.5	1.5
0	75934	1464.5	1.5
0	75975	1465.5	1.5
0	76016	1466.5	1.5
0	76057	1467.5	1.5
0	76098	1468.5	1.5
0	76139	1469.5	1.5
0	76180	1470.5	1.5
0	76221	1471.5	1.5
0	76262	1472.5	1.5
0	76303	1473.5	1.5
0	76344	1474.5	1.5
0	76385	1475.5	1.5
0	76412	1476.5	1.5
0	76804	1490.5	14.5
0	76805	1490.5	13.5
0	76806	1490.5	12.5
0	76807	1490.5	11.5
0	76808	1490.5	10.5
0	76809	1490.5	9.5
0	76810	1490.5	8.5
0	76811	1490.5	7.5
0	76812	1490.5	6.5
0	76813	1490.5	5.5
0	76814	1490.5	4.5
0	76815	1490.5	3.5
0	76816	1490.5	2.5
0	76817	1490.5	1.5
0	76922	1491.5	1.5
0	76990	1492.5	1.5
0	77038	1493.5	1.5
0	77080	1494.5	1.5
0	77122	1495.5	1.5
0	77164	1496.5	1.5
0	77206	1497.5	1.5
0	77248	1498.5	1.5
0	77292	1499.5	1.5
0	77333	1500.5	1.5
0	77374	1501.5	1.5
0	77415	1502.5	1.5
0	77459	1503.5	1.5
0	77501	1504.5	1.5
0	77543	1505.5	1.5
0	77634	1506.5	1.5
0	77677	1507.5	1.5
0	77771	1508.5	1.5
0	77815	1509.5	1.5
0	77859	1510.5	1.5
0	77903	1511.5	1.5
0	77947	1512.5	1.5
0	77991	1513.5	1.5
0	78035	1514.5	1.5
0	78079	1515.5	1.5
0	78123	1516.5	1.5
0	78167	1517.5	1.5
0	78247	1519.5	1.5
0	78297	1520.5	1.5
0	78329	1521.1	4.1
0	78355	1521.5	1.5
0	78397	1522.5	1.5
0	78435	1523.5	1.5
0	78473	1524.5	1.5
0	78514	1525.5	1.5
0	78553	1526.5	1.5
0	78592	1527.5	1.5
0	78631	1528.5	1.5
0	78670	1529.5	1.5
0	78709	1530.5	1.5
0	79203	1547.1	17.1
0	79204	1547.1	16.1
0	79205	1547.1	15.1
0	79206	1547.1	14.1
0	79207	1547.1	13.1
0	79208	1547.1	12.1
0	79209	1547.1	11.1
0	79210	1547.1	10.1
0	79211	1547.1	9.1
0	81131	1584.4	45.4
0	81132	1584.4	44.4
0	81133	1584.4	43.4
0	81134	1584.4	42.4
0	81135	1584.4	41.4
0	81136	1584.4	40.4
0	81137	1584.4	39.4
0	81138	1584.4	38.4
0	81139	1584.4	37.4
0	81140	1584.4	36.4
0	81141	1584.4	35.4
0	81142	1584.4	34.4
0	81143	1584.4	33.4
0	81144	1584.4	32.4
0	81145	1584.4	31.4
0	81146	1584.4	30.4
0	81147	1584.4	29.4
0	81148	1584.4	28.4
0	81149	1584.4	27.4
0	81150	1584.4	26.4
0	81151	1584.4	25.4
0	81152	1584.4	24.4
0	81153	1584.4	23.4
0	81154	1584.4	22.4
0	81155	1584.4	21.4
0	81156	1584.4	20.4
0	81157	1584.4	19.4
0	81158	1584.4	18.4
0	81159	1584.4	17.4
0	81160	1584.4	16.4
0	81161	1584.4	15.4
0	81162	1584.4	14.4
0	81163	1584.4	13.4
0	81164	1584.4	12.4
0	81165	1584.4	11.4
0	81166	1584.4	10.4
0	81167	1584.4	9.4
0	81168	1584.4	8.4
0	81169	1584.4	7.4
0	81170	1584.4	6.4
0	81171	1584.4	5.4
0	81172	1584.4	4.4
0	81173	1584.4	3.4
0	81174	1584.4	2.4
0	81175	1584.4	1.4
0	81541	1585.4	1.4
0	81599	1586.4	1.4
0	81657	1587.4	1.4
0	81715	1588.4	1.4
0	81801	1589.4	1.4
0	81875	1590.4	1.4
0	81936	1591.4	1.4
0	81997	1592.4	1.4
0	82058	1593.4	1.4
0	82119	1594.4	1.4
0	82180	1595.4	1.4
0	82241	1596.4	1.4
0	82302	1597.4	1.4
0	82361	1598.4	1.4
0	82414	1599.4	1.4
0	82477	1601.5	1.5
0	82781	1610.1	9.1
0	82782	1610.1	8.1
0	82783	1610.1	7.1
0	82784	1610.1	6.1
0	82785	1610.1	5.1
0	82786	1610.1	4.1
0	82787	1610.1	3.1
0	82788	1610.1	2.1
0	82856	1610.5	1.5
0	82901	1611.5	1.5
0	82940	1612.5	1.5
0	83604	1628.2	16.2
0	83605	1628.2	15.2
0	83606	1628.2	29.2
0	83607	1628.2	14.2
0	83608	1628.2	13.2
0	83609	1628.2	12.2
0	83610	1628.2	11.2
0	83611	1628.2	10.2
0	83612	1628.2	9.2
0	83613	1628.2	8.2
0	83614	1628.2	7.2
0	83615	1628.2	6.2
0	83616	1628.2	5.2
0	83617	1628.2	4.2
0	83618	1628.2	3.2
0	83619	1628.2	2.2
0	83713	1628.4	1.4
0	83823	1631.3	3.3
0	83824	1631.3	2.3
0	83825	1631.3	1.3
0	83876	1632.3	1.3
0	83913	1633.3	1.3
0	83950	1634.3	1.3
0	83987	1635.3	1.3
0	84024	1636.3	1.3
0	84061	1637.3	1.3
0	84098	1638.3	1.3
0	84134	1639.3	1.3
0	84169	1640.3	1.3
0	84206	1641.3	1.3
0	84241	1642.3	1.3
0	84276	1643.3	1.3
0	84311	1644.3	1.3
0	84346	1645.3	1.3
0	84381	1646.3	1.3
0	84425	1647.3	1.3
0	84460	1648.3	1.3
0	84496	1649.3	1.3
0	84530	1650.3	1.3
0	84569	1651.3	1.3
0	84605	1652.3	1.3
0	84641	1653.3	1.3
0	84677	1654.3	1.3
0	84713	1655.3	1.3
0	84749	1656.3	1.3
0	84785	1657.3	1.3
0	84823	1658.3	1.3
0	84858	1659.3	1.3
0	84893	1660.3	1.3
0	84928	1661.3	1.3
0	84963	1662.3	1.3
0	84998	1663.3	1.3
0	85036	1664.3	1.3
0	85084	1665.4	1.4
0	85119	1666.4	1.4
0	85154	1667.4	1.4
0	85189	1668.4	1.4
0	85229	1669.4	1.4
0	85266	1670.4	1.4
0	85303	1671.4	1.4
0	85340	1672.4	1.4
0	85379	1673.4	1.4
0	85416	1674.4	1.4
0	85453	1675.4	1.4
0	85490	1676.4	1.4
0	85527	1677.4	1.4
0	85561	1678.4	1.4
0	87038	1701.3	23.3
0	87039	1701.3	22.3
0	87040	1701.3	21.3
0	87041	1701.3	20.3
0	87042	1701.3	19.3
0	87043	1701.3	18.3
0	87044	1701.3	17.3
0	87045	1701.3	16.3
0	87046	1701.3	15.3
0	87047	1701.3	14.3
0	87048	1701.3	13.3
0	87049	1701.3	12.3
0	87050	1701.3	11.3
0	87051	1701.3	10.3
0	87052	1701.3	9.3
0	87053	1701.3	8.3
0	87054	1701.3	7.3
0	87055	1701.3	6.3
0	87056	1701.3	5.3
0	87057	1701.3	4.3
0	87058	1701.3	3.3
0	87059	1701.3	103.3
0	87060	1701.3	2.3
0	87078	1701.4	1.4
0	87092	1701.5	101.5
0	87099	1701.6	101.6
0	87193	1702.4	1.4
0	87236	1703.4	1.4
0	87323	1706.1	3.1
0	87324	1706.1	2.1
0	87351	1706.3	1.3
0	87389	1707.3	1.3
0	87427	1708.3	1.3
0	87465	1709.3	1.3
0	87511	1710.3	1.3
0	87569	1711.3	1.3
0	87751	1712.3	1.3
0	87765	1712.4	101.4
0	88026	1713.3	1.3
0	88153	1714.3	1.3
0	88198	1715.3	1.3
0	88239	1716.3	1.3
0	88280	1717.3	1.3
0	88321	1718.3	1.3
0	88362	1719.3	1.3
0	88416	1720.3	1.3
0	88463	1721.3	1.3
0	88504	1722.3	1.3
0	88545	1723.3	1.3
0	88586	1724.3	1.3
0	88627	1725.3	1.3
0	88668	1726.3	1.3
0	88726	1727.3	1.3
0	88782	1728.3	1.3
0	88821	1729.3	1.3
0	88866	1730.3	1.3
0	88910	1731.3	1.3
0	88952	1732.3	1.3
0	88994	1733.3	1.3
0	89036	1734.3	1.3
0	89078	1735.3	1.3
0	89121	1736.3	1.3
0	89163	1737.3	1.3
0	89203	1738.3	1.3
0	89243	1739.3	1.3
0	89283	1740.3	1.3
0	89323	1741.3	1.3
0	89363	1742.3	1.3
0	89403	1743.3	1.3
0	89448	1744.3	1.3
0	89491	1745.3	1.3
0	89532	1746.3	1.3
0	89573	1747.3	1.3
0	89618	1748.3	1.3
0	89659	1749.3	1.3
0	89700	1750.3	1.3
0	89741	1751.3	1.3
0	89782	1752.3	1.3
0	89823	1753.3	1.3
0	89864	1754.3	1.3
0	89905	1755.3	1.3
0	89946	1756.3	1.3
0	89987	1757.3	1.3
0	90028	1758.3	1.3
0	90073	1759.3	1.3
0	90158	1761.3	1.3
0	90216	1762.3	1.3
0	90236	1762.5	3.5
0	90263	1763.3	1.3
0	90291	1765.4	101.4
0	90310	1766.4	101.4
0	90329	1767.4	101.4
0	90348	1768.4	101.4
0	90369	1769.4	101.4
0	90389	1770.4	101.4
0	90407	1771.4	101.4
0	90425	1772.4	101.4
0	90443	1773.4	101.4
0	90461	1774.4	101.4
0	90479	1775.4	101.4
0	90497	1776.4	101.4
0	90515	1777.4	101.4
0	91122	1778.4	101.4
0	92141	1790.3	27.3
0	92142	1790.3	26.3
0	92143	1790.3	25.3
0	92144	1790.3	24.3
0	92145	1790.3	23.3
0	92146	1790.3	22.3
0	92147	1790.3	21.3
0	92148	1790.3	20.3
0	92149	1790.3	19.3
0	92150	1790.3	18.3
0	92151	1790.3	17.3
0	92152	1790.3	16.3
0	92153	1790.3	15.3
0	92154	1790.3	14.3
0	92155	1790.3	13.3
0	92156	1790.3	12.3
0	92157	1790.3	11.3
0	92158	1790.3	10.3
0	92159	1790.3	9.3
0	92160	1790.3	8.3
0	92161	1790.3	7.3
0	92162	1790.3	6.3
0	92163	1790.3	5.3
0	92164	1790.3	4.3
0	92165	1790.3	3.3
0	92166	1790.3	2.3
0	92167	1790.3	1.3
0	92532	1791.3	1.3
0	92583	1792.3	1.3
0	92634	1793.3	1.3
0	92685	1794.3	1.3
0	92741	1795.3	1.3
0	92794	1796.3	1.3
0	92847	1797.3	1.3
0	92900	1798.3	1.3
0	92952	1799.3	1.3
0	93206	1804.5	4.5
0	93207	1804.5	3.5
0	93208	1804.5	2.5
0	93209	1804.5	1.5
0	93292	1805.5	1.5
0	93374	1806.5	1.5
0	93430	1807.5	1.5
0	93486	1808.5	1.5
0	93542	1809.5	1.5
0	93597	1810.5	1.5
0	93654	1811.5	1.5
0	93710	1812.5	1.5
0	93765	1813.5	1.5
0	93820	1814.5	1.5
0	93875	1815.5	1.5
0	93933	1816.5	1.5
0	93989	1817.5	1.5
0	94039	1818.5	1.5
0	94140	1820.5	2.5
0	94141	1820.5	1.5
0	94207	1821.5	1.5
0	94263	1822.5	1.5
0	94319	1823.5	1.5
0	94375	1824.5	1.5
0	94431	1825.5	1.5
0	94487	1826.5	1.5
0	94543	1827.5	1.5
0	94599	1828.5	1.5
0	94655	1829.5	1.5
0	94711	1830.5	1.5
0	94767	1831.5	1.5
0	94823	1832.5	1.5
0	94879	1833.5	1.5
0	94935	1834.5	1.5
0	94991	1835.5	1.5
0	95047	1836.5	1.5
0	95100	1837.5	1.5
0	103777	2050.1	213.1
0	103778	2050.1	212.1
0	103779	2050.1	211.1
0	103780	2050.1	210.1
0	103781	2050.1	209.1
0	103782	2050.1	208.1
0	103783	2050.1	207.1
0	103784	2050.1	206.1
0	103785	2050.1	205.1
0	103786	2050.1	204.1
0	103787	2050.1	203.1
0	103788	2050.1	202.1
0	103789	2050.1	201.1
0	103790	2050.1	200.1
0	103791	2050.1	199.1
0	103792	2050.1	198.1
0	103793	2050.1	197.1
0	103794	2050.1	196.1
0	103795	2050.1	251.1
0	103796	2050.1	195.1
0	103797	2050.1	194.1
0	103798	2050.1	193.1
0	103799	2050.1	192.1
0	103800	2050.1	191.1
0	103801	2050.1	190.1
0	103802	2050.1	189.1
0	103803	2050.1	188.1
0	103804	2050.1	187.1
0	103805	2050.1	186.1
0	103806	2050.1	185.1
0	103807	2050.1	184.1
0	103808	2050.1	183.1
0	103809	2050.1	182.1
0	103810	2050.1	181.1
0	103811	2050.1	180.1
0	103812	2050.1	179.1
0	103813	2050.1	178.1
0	103814	2050.1	177.1
0	103815	2050.1	176.1
0	103816	2050.1	175.1
0	103817	2050.1	174.1
0	103818	2050.1	173.1
0	103819	2050.1	172.1
0	103820	2050.1	171.1
0	103821	2050.1	170.1
0	103822	2050.1	169.1
0	103823	2050.1	168.1
0	103824	2050.1	167.1
0	103825	2050.1	166.1
0	103826	2050.1	165.1
0	103827	2050.1	164.1
0	103828	2050.1	163.1
0	103829	2050.1	162.1
0	103830	2050.1	161.1
0	103831	2050.1	160.1
0	103832	2050.1	159.1
0	103833	2050.1	158.1
0	103834	2050.1	157.1
0	103835	2050.1	156.1
0	103836	2050.1	155.1
0	103837	2050.1	154.1
0	103838	2050.1	153.1
0	103839	2050.1	152.1
0	103840	2050.1	151.1
0	103841	2050.1	150.1
0	103842	2050.1	149.1
0	103843	2050.1	148.1
0	103844	2050.1	147.1
0	103845	2050.1	146.1
0	103846	2050.1	145.1
0	103847	2050.1	144.1
0	103848	2050.1	143.1
0	103849	2050.1	142.1
0	103850	2050.1	141.1
0	103851	2050.1	140.1
0	103852	2050.1	139.1
0	103853	2050.1	138.1
0	103854	2050.1	137.1
0	103855	2050.1	136.1
0	103856	2050.1	135.1
0	103857	2050.1	134.1
0	103858	2050.1	133.1
0	103859	2050.1	132.1
0	103860	2050.1	131.1
0	103861	2050.1	130.1
0	103862	2050.1	129.1
0	103863	2050.1	128.1
0	103864	2050.1	127.1
0	103865	2050.1	126.1
0	103866	2050.1	125.1
0	103867	2050.1	124.1
0	103868	2050.1	123.1
0	103869	2050.1	122.1
0	103870	2050.1	121.1
0	103871	2050.1	120.1
0	103872	2050.1	119.1
0	103873	2050.1	118.1
0	103874	2050.1	117.1
0	103875	2050.1	116.1
0	103876	2050.1	115.1
0	103877	2050.1	114.1
0	103878	2050.1	113.1
0	103879	2050.1	112.1
0	103880	2050.1	111.1
0	103881	2050.1	110.1
0	103882	2050.1	109.1
0	103883	2050.1	108.1
0	103884	2050.1	107.1
0	103885	2050.1	106.1
0	103886	2050.1	105.1
0	103887	2050.1	104.1
0	103888	2050.1	103.1
0	103889	2050.1	102.1
0	103890	2050.1	101.1
0	103891	2050.1	100.1
0	103892	2050.1	99.1
0	103893	2050.1	98.1
0	103894	2050.1	97.1
0	103895	2050.1	96.1
0	103896	2050.1	95.1
0	103897	2050.1	94.1
0	103898	2050.1	93.1
0	103899	2050.1	92.1
0	103900	2050.1	91.1
0	103901	2050.1	90.1
0	103902	2050.1	89.1
0	103903	2050.1	88.1
0	103904	2050.1	87.1
0	103905	2050.1	86.1
0	103906	2050.1	85.1
0	103907	2050.1	84.1
0	103908	2050.1	83.1
0	103909	2050.1	82.1
0	103910	2050.1	81.1
0	103911	2050.1	80.1
0	103912	2050.1	79.1
0	103913	2050.1	78.1
0	103914	2050.1	77.1
0	103915	2050.1	76.1
0	103916	2050.1	75.1
0	103917	2050.1	74.1
0	103918	2050.1	73.1
0	103919	2050.1	72.1
0	103920	2050.1	71.1
0	103921	2050.1	70.1
0	103922	2050.1	69.1
0	103923	2050.1	68.1
0	103924	2050.1	67.1
0	103925	2050.1	66.1
0	103926	2050.1	65.1
0	103927	2050.1	64.1
0	103928	2050.1	63.1
0	103929	2050.1	62.1
0	103930	2050.1	61.1
0	103931	2050.1	60.1
0	103932	2050.1	59.1
0	103933	2050.1	58.1
0	103934	2050.1	57.1
0	103935	2050.1	56.1
0	103936	2050.1	55.1
0	103937	2050.1	54.1
0	103938	2050.1	53.1
0	103939	2050.1	52.1
0	103940	2050.1	51.1
0	103941	2050.1	50.1
0	103942	2050.1	49.1
0	103943	2050.1	48.1
0	103944	2050.1	47.1
0	103945	2050.1	46.1
0	103946	2050.1	45.1
0	103947	2050.1	44.1
0	103948	2050.1	43.1
0	103949	2050.1	42.1
0	103950	2050.1	41.1
0	103951	2050.1	40.1
0	103952	2050.1	39.1
0	103953	2050.1	38.1
0	103954	2050.1	37.1
0	103955	2050.1	36.1
0	103956	2050.1	35.1
0	103957	2050.1	34.1
0	103958	2050.1	33.1
0	103959	2050.1	32.1
0	103960	2050.1	31.1
0	103961	2050.1	30.1
0	103962	2050.1	29.1
0	103963	2050.1	28.1
0	103964	2050.1	27.1
0	103965	2050.1	26.1
0	103966	2050.1	25.1
0	103967	2050.1	24.1
0	103968	2050.1	23.1
0	103969	2050.1	22.1
0	103970	2050.1	21.1
0	103971	2050.1	20.1
0	103972	2050.1	19.1
0	103973	2050.1	18.1
0	103974	2050.1	17.1
0	103975	2050.1	16.1
0	103976	2050.1	15.1
0	103977	2050.1	14.1
0	103978	2050.1	13.1
0	103979	2050.1	12.1
0	103980	2050.1	11.1
0	103981	2050.1	10.1
0	103982	2050.1	9.1
0	103983	2050.1	8.1
0	103984	2050.1	7.1
0	103985	2050.1	6.1
0	103986	2050.1	5.1
0	103987	2050.1	4.1
0	103988	2050.1	3.1
0	103989	2050.1	2.1
0	105081	2050.5	1.5
0	105125	2051.5	1.5
0	105169	2052.5	1.5
0	105213	2053.5	1.5
0	105257	2054.5	1.5
0	105301	2055.5	1.5
0	105345	2056.5	1.5
0	105388	2057.5	1.5
0	105430	2058.5	1.5
0	105472	2059.5	1.5
0	105514	2060.5	1.5
0	105557	2061.5	1.5
0	105599	2062.5	1.5
0	105641	2063.5	1.5
0	105683	2064.5	1.5
0	105725	2065.5	1.5
0	105768	2066.5	1.5
0	105809	2067.5	1.5
0	105850	2068.5	1.5
0	105885	2069.5	1.5
0	105970	2071.6	2.6
0	105971	2071.6	1.6
0	106728	2091.6	20.6
0	106729	2091.6	19.6
0	106730	2091.6	18.6
0	106731	2091.6	17.6
0	106732	2091.6	16.6
0	106733	2091.6	15.6
0	106734	2091.6	14.6
0	106735	2091.6	13.6
0	106736	2091.6	12.6
0	106737	2091.6	11.6
0	106738	2091.6	10.6
0	106739	2091.6	9.6
0	106740	2091.6	8.6
0	106741	2091.6	7.6
0	106742	2091.6	6.6
0	106743	2091.6	5.6
0	106744	2091.6	4.6
0	106745	2091.6	3.6
0	106746	2091.6	2.6
0	106747	2091.6	1.6
0	106893	2092.6	1.6
0	106989	2093.6	1.6
0	107049	2094.6	1.6
0	107105	2095.6	1.6
0	107161	2096.6	1.6
0	107217	2097.6	1.6
0	107273	2098.6	1.6
0	107330	2099.6	1.6
0	107380	2100.6	1.6
0	107455	2102.5	2.5
0	107456	2102.5	1.5
0	107551	2103.5	1.5
0	107606	2104.5	1.5
0	107777	2105.5	1.5
0	108174	2113.1	8.1
0	108175	2113.1	7.1
0	108176	2113.1	6.1
0	108177	2113.1	5.1
0	108178	2113.1	4.1
0	108179	2113.1	3.1
0	108180	2113.1	2.1
0	108244	2113.5	1.5
0	108296	2114.5	1.5
0	108348	2115.5	1.5
0	108400	2116.5	1.5
0	108452	2117.5	1.5
0	108504	2118.5	1.5
0	108556	2119.5	1.5
0	108608	2120.5	1.5
0	108660	2121.5	1.5
0	108712	2122.5	1.5
0	108764	2123.5	1.5
0	108816	2124.5	1.5
0	108868	2125.5	1.5
0	108920	2126.5	1.5
0	108972	2127.5	1.5
0	109024	2128.5	1.5
0	109076	2129.5	1.5
0	109128	2130.5	1.5
0	109180	2131.5	1.5
0	109232	2132.5	1.5
0	109284	2133.5	1.5
0	109336	2134.5	1.5
0	109388	2135.5	1.5
0	109445	2136.5	1.5
0	109499	2137.5	1.5
0	109553	2138.5	1.5
0	109607	2139.5	1.5
0	109661	2140.5	1.5
0	109719	2141.5	1.5
0	109774	2142.5	1.5
0	109829	2143.5	1.5
0	109888	2144.5	1.5
0	110027	2146.4	2.4
0	110028	2146.4	1.4
0	110095	2147.4	1.4
0	110156	2148.4	1.4
0	110215	2149.4	1.4
0	110482	2150.4	1.4
0	110557	2152.5	1.5
0	110628	2153.5	1.5
0	110665	2154.5	1.5
0	112318	2177.3	27.3
0	112515	2200.5	101.5
0	118855	2327.6	173.6
0	118856	2327.6	172.6
0	118857	2327.6	171.6
0	118858	2327.6	170.6
0	118859	2327.6	169.6
0	118860	2327.6	168.6
0	118861	2327.6	167.6
0	118862	2327.6	166.6
0	118863	2327.6	165.6
0	118864	2327.6	164.6
0	118865	2327.6	163.6
0	118866	2327.6	162.6
0	118867	2327.6	161.6
0	118868	2327.6	160.6
0	118869	2327.6	159.6
0	118870	2327.6	158.6
0	118871	2327.6	157.6
0	118872	2327.6	156.6
0	118873	2327.6	155.6
0	118874	2327.6	154.6
0	118875	2327.6	153.6
0	118876	2327.6	152.6
0	118877	2327.6	151.6
0	118878	2327.6	150.6
0	118879	2327.6	149.6
0	118880	2327.6	148.6
0	118881	2327.6	147.6
0	118882	2327.6	146.6
0	118883	2327.6	145.6
0	118884	2327.6	144.6
0	118885	2327.6	143.6
0	118886	2327.6	142.6
0	118887	2327.6	141.6
0	118888	2327.6	140.6
0	118889	2327.6	139.6
0	118890	2327.6	138.6
0	118891	2327.6	137.6
0	118892	2327.6	136.6
0	118893	2327.6	135.6
0	118894	2327.6	134.6
0	118895	2327.6	133.6
0	118896	2327.6	132.6
0	118897	2327.6	131.6
0	118898	2327.6	130.6
0	118899	2327.6	129.6
0	118900	2327.6	128.6
0	118901	2327.6	127.6
0	118902	2327.6	126.6
0	118903	2327.6	125.6
0	118904	2327.6	124.6
0	118905	2327.6	123.6
0	118906	2327.6	122.6
0	118907	2327.6	121.6
0	118908	2327.6	120.6
0	118909	2327.6	119.6
0	118910	2327.6	118.6
0	118911	2327.6	117.6
0	118912	2327.6	116.6
0	118913	2327.6	115.6
0	118914	2327.6	114.6
0	118915	2327.6	113.6
0	118916	2327.6	112.6
0	118917	2327.6	111.6
0	118918	2327.6	110.6
0	118919	2327.6	109.6
0	118920	2327.6	108.6
0	118921	2327.6	107.6
0	118922	2327.6	106.6
0	118923	2327.6	105.6
0	118924	2327.6	104.6
0	118925	2327.6	103.6
0	118926	2327.6	102.6
0	118927	2327.6	101.6
0	118928	2327.6	100.6
0	118929	2327.6	99.6
0	118930	2327.6	98.6
0	118931	2327.6	97.6
0	118932	2327.6	96.6
0	118933	2327.6	95.6
0	118934	2327.6	94.6
0	118935	2327.6	93.6
0	118936	2327.6	92.6
0	118937	2327.6	91.6
0	118938	2327.6	90.6
0	118939	2327.6	89.6
0	118940	2327.6	88.6
0	118941	2327.6	87.6
0	118942	2327.6	86.6
0	118943	2327.6	85.6
0	118944	2327.6	84.6
0	118945	2327.6	83.6
0	118946	2327.6	82.6
0	118947	2327.6	81.6
0	118948	2327.6	80.6
0	118949	2327.6	79.6
0	118950	2327.6	78.6
0	118951	2327.6	77.6
0	118952	2327.6	76.6
0	118953	2327.6	75.6
0	118954	2327.6	74.6
0	118955	2327.6	73.6
0	118956	2327.6	72.6
0	118957	2327.6	71.6
0	118958	2327.6	70.6
0	118959	2327.6	69.6
0	118960	2327.6	68.6
0	118961	2327.6	67.6
0	118962	2327.6	66.6
0	118963	2327.6	65.6
0	118964	2327.6	64.6
0	118965	2327.6	63.6
0	118966	2327.6	62.6
0	118967	2327.6	61.6
0	118968	2327.6	60.6
0	118969	2327.6	59.6
0	118970	2327.6	58.6
0	118971	2327.6	57.6
0	118972	2327.6	56.6
0	118973	2327.6	55.6
0	118974	2327.6	54.6
0	118975	2327.6	53.6
0	118976	2327.6	52.6
0	118977	2327.6	51.6
0	118978	2327.6	50.6
0	118979	2327.6	49.6
0	118980	2327.6	48.6
0	118981	2327.6	47.6
0	118982	2327.6	46.6
0	118983	2327.6	45.6
0	118984	2327.6	44.6
0	118985	2327.6	43.6
0	118986	2327.6	42.6
0	118987	2327.6	41.6
0	118988	2327.6	40.6
0	118989	2327.6	39.6
0	118990	2327.6	38.6
0	118991	2327.6	37.6
0	118992	2327.6	36.6
0	118993	2327.6	35.6
0	118994	2327.6	34.6
0	118995	2327.6	33.6
0	118996	2327.6	32.6
0	118997	2327.6	31.6
0	118998	2327.6	30.6
0	118999	2327.6	29.6
0	119000	2327.6	28.6
0	119001	2327.6	27.6
0	119002	2327.6	26.6
0	119003	2327.6	25.6
0	119004	2327.6	24.6
0	119005	2327.6	23.6
0	119006	2327.6	22.6
0	119007	2327.6	21.6
0	119008	2327.6	20.6
0	119009	2327.6	19.6
0	119010	2327.6	18.6
0	119011	2327.6	17.6
0	119012	2327.6	16.6
0	119013	2327.6	15.6
0	119014	2327.6	14.6
0	119015	2327.6	13.6
0	119016	2327.6	12.6
0	119017	2327.6	11.6
0	119018	2327.6	10.6
0	119019	2327.6	9.6
0	119020	2327.6	8.6
0	119021	2327.6	7.6
0	119022	2327.6	6.6
0	119023	2327.6	5.6
0	119024	2327.6	4.6
0	119025	2327.6	3.6
0	119026	2327.6	2.6
0	119027	2327.6	1.6
0	119939	2328.6	1.6
0	120337	2329.6	1.6
0	120391	2330.6	1.6
0	120447	2331.6	1.6
0	120505	2332.6	1.6
0	120560	2333.6	1.6
0	120615	2334.6	1.6
0	120670	2335.6	1.6
0	120725	2336.6	1.6
0	120780	2337.6	1.6
0	120835	2338.6	1.6
0	120895	2339.6	1.6
0	120952	2340.6	1.6
0	121009	2341.6	1.6
0	121066	2342.6	1.6
0	121123	2343.6	1.6
0	121180	2344.6	1.6
0	121237	2345.6	1.6
0	121294	2346.6	1.6
0	121345	2347.6	1.6
0	122158	2374.4	27.4
0	122159	2374.4	26.4
0	122160	2374.4	25.4
0	122161	2374.4	24.4
0	122162	2374.4	23.4
0	122163	2374.4	22.4
0	122164	2374.4	21.4
0	122165	2374.4	20.4
0	122166	2374.4	19.4
0	122167	2374.4	18.4
0	122168	2374.4	17.4
0	122169	2374.4	16.4
0	122170	2374.4	15.4
0	122171	2374.4	14.4
0	122172	2374.4	13.4
0	122173	2374.4	12.4
0	122174	2374.4	11.4
0	122175	2374.4	10.4
0	122176	2374.4	9.4
0	122177	2374.4	8.4
0	122178	2374.4	7.4
0	122179	2374.4	6.4
0	122180	2374.4	5.4
0	122181	2374.4	4.4
0	122182	2374.4	3.4
0	122183	2374.4	2.4
0	122195	2374.5	1.5
0	122229	2375.5	1.5
0	122317	2376.5	1.5
0	122353	2377.5	1.5
0	122389	2378.5	1.5
0	122425	2379.5	1.5
0	122461	2380.5	1.5
0	122497	2381.5	1.5
0	122533	2382.5	1.5
0	122569	2383.5	1.5
0	122605	2384.5	1.5
0	122641	2385.5	1.5
0	122675	2386.5	1.5
0	122889	2391.3	5.3
0	122890	2391.3	4.3
0	122891	2391.3	3.3
0	122892	2391.3	2.3
0	122906	2391.4	1.4
0	122961	2392.4	1.4
0	123119	2402.7	10.7
0	123120	2402.7	9.7
0	123121	2402.7	8.7
0	127539	2476.4	81.4
0	127540	2476.4	80.4
0	127541	2476.4	79.4
0	127542	2476.4	78.4
0	127543	2476.4	77.4
0	127544	2476.4	76.4
0	127545	2476.4	75.4
0	127546	2476.4	74.4
0	127547	2476.4	73.4
0	127548	2476.4	72.4
0	127549	2476.4	71.4
0	127550	2476.4	70.4
0	127551	2476.4	69.4
0	127552	2476.4	68.4
0	127553	2476.4	67.4
0	127554	2476.4	66.4
0	127555	2476.4	65.4
0	127556	2476.4	64.4
0	127557	2476.4	63.4
0	127558	2476.4	62.4
0	127559	2476.4	61.4
0	127560	2476.4	60.4
0	127561	2476.4	59.4
0	127562	2476.4	58.4
0	127563	2476.4	57.4
0	127564	2476.4	56.4
0	127565	2476.4	55.4
0	127566	2476.4	54.4
0	127567	2476.4	53.4
0	127568	2476.4	52.4
0	127569	2476.4	51.4
0	127570	2476.4	50.4
0	127571	2476.4	49.4
0	127572	2476.4	48.4
0	127573	2476.4	47.4
0	127574	2476.4	46.4
0	127575	2476.4	45.4
0	127576	2476.4	44.4
0	127577	2476.4	43.4
0	127578	2476.4	42.4
0	127579	2476.4	41.4
0	127580	2476.4	40.4
0	127581	2476.4	39.4
0	127582	2476.4	38.4
0	127583	2476.4	37.4
0	127584	2476.4	36.4
0	127585	2476.4	35.4
0	127586	2476.4	34.4
0	127587	2476.4	33.4
0	127588	2476.4	32.4
0	127589	2476.4	31.4
0	127590	2476.4	30.4
0	127591	2476.4	29.4
0	127592	2476.4	28.4
0	127593	2476.4	27.4
0	127594	2476.4	26.4
0	127595	2476.4	25.4
0	127596	2476.4	24.4
0	127597	2476.4	23.4
0	127598	2476.4	22.4
0	127599	2476.4	21.4
0	127600	2476.4	20.4
0	127601	2476.4	19.4
0	127602	2476.4	18.4
0	127603	2476.4	17.4
0	127604	2476.4	16.4
0	127605	2476.4	15.4
0	127606	2476.4	14.4
0	127607	2476.4	13.4
0	127608	2476.4	12.4
0	127609	2476.4	11.4
0	127610	2476.4	10.4
0	127611	2476.4	9.4
0	127612	2476.4	8.4
0	127613	2476.4	7.4
0	127614	2476.4	6.4
0	127615	2476.4	5.4
0	127616	2476.4	4.4
0	127617	2476.4	3.4
0	127618	2476.4	2.4
0	127619	2476.4	1.4
0	128488	2477.4	1.4
0	128725	2478.4	1.4
0	128803	2479.4	1.4
0	128879	2480.4	1.4
0	128952	2481.4	1.4
0	129025	2482.4	1.4
0	129098	2483.4	1.4
0	129171	2484.4	1.4
0	129244	2485.4	1.4
0	129314	2486.4	1.4
0	129370	2487.4	1.4
0	132093	2570.1	40.1
0	132094	2570.1	39.1
0	132095	2570.1	83.1
0	132096	2570.1	82.1
0	132097	2570.1	81.1
0	132098	2570.1	80.1
0	132099	2570.1	79.1
0	132100	2570.1	78.1
0	132101	2570.1	77.1
0	132102	2570.1	76.1
0	132103	2570.1	75.1
0	132104	2570.1	74.1
0	132105	2570.1	73.1
0	132106	2570.1	72.1
0	132107	2570.1	71.1
0	132108	2570.1	70.1
0	132109	2570.1	69.1
0	132110	2570.1	68.1
0	132111	2570.1	67.1
0	132112	2570.1	66.1
0	132113	2570.1	65.1
0	132114	2570.1	64.1
0	132115	2570.1	63.1
0	132116	2570.1	62.1
0	132117	2570.1	61.1
0	132118	2570.1	60.1
0	132119	2570.1	59.1
0	132120	2570.1	58.1
0	132121	2570.1	57.1
0	132122	2570.1	56.1
0	132123	2570.1	55.1
0	132124	2570.1	54.1
0	132125	2570.1	53.1
0	132126	2570.1	52.1
0	132127	2570.1	51.1
0	132128	2570.1	50.1
0	132129	2570.1	49.1
0	132130	2570.1	48.1
0	132131	2570.1	47.1
0	132132	2570.1	46.1
0	132133	2570.1	45.1
0	132134	2570.1	44.1
0	132135	2570.1	43.1
0	132136	2570.1	42.1
0	132137	2570.1	41.1
0	132138	2570.1	38.1
0	132139	2570.1	37.1
0	132953	2574.2	40.2
0	132954	2574.2	39.2
0	132955	2574.2	38.2
0	132956	2574.2	37.2
0	132957	2574.2	36.2
0	132958	2574.2	35.2
0	132959	2574.2	34.2
0	132960	2574.2	33.2
0	132961	2574.2	32.2
0	132962	2574.2	31.2
0	132963	2574.2	30.2
0	132964	2574.2	29.2
0	132965	2574.2	28.2
0	132966	2574.2	27.2
0	132967	2574.2	26.2
0	132968	2574.2	25.2
0	132969	2574.2	24.2
0	132970	2574.2	23.2
0	132971	2574.2	22.2
0	132972	2574.2	21.2
0	132973	2574.2	20.2
0	132974	2574.2	19.2
0	132975	2574.2	18.2
0	132976	2574.2	17.2
0	132977	2574.2	16.2
0	132978	2574.2	15.2
0	132979	2574.2	14.2
0	132980	2574.2	13.2
0	132981	2574.2	12.2
0	132982	2574.2	11.2
0	132983	2574.2	10.2
0	132984	2574.2	9.2
0	132985	2574.2	8.2
0	132986	2574.2	7.2
0	132987	2574.2	6.2
0	132988	2574.2	5.2
0	132989	2574.2	4.2
0	132990	2574.2	3.2
0	132991	2574.2	2.2
0	133002	2574.3	1.3
0	133359	2575.3	1.3
0	133479	2576.3	1.3
0	133519	2577.3	1.3
0	133557	2578.3	1.3
0	133595	2579.3	1.3
0	133633	2580.3	1.3
0	133671	2581.3	1.3
0	133709	2582.3	1.3
0	133747	2583.3	1.3
0	133785	2584.3	1.3
0	133823	2585.3	1.3
0	133861	2586.3	1.3
0	133897	2587.3	1.3
0	133932	2588.3	1.3
0	133967	2589.3	1.3
0	134002	2590.3	1.3
0	134037	2591.3	1.3
0	134072	2592.3	1.3
0	134107	2593.3	1.3
0	134142	2594.3	1.3
0	134180	2595.3	1.3
0	134216	2596.3	1.3
0	134252	2597.3	1.3
0	134285	2598.3	1.3
0	135384	2617.4	19.4
0	135385	2617.4	18.4
0	135386	2617.4	17.4
0	135387	2617.4	16.4
0	135388	2617.4	15.4
0	135389	2617.4	14.4
0	135390	2617.4	13.4
0	135391	2617.4	12.4
0	135392	2617.4	11.4
0	135393	2617.4	10.4
0	135394	2617.4	9.4
0	135395	2617.4	8.4
0	135396	2617.4	7.4
0	135397	2617.4	6.4
0	135398	2617.4	5.4
0	135399	2617.4	4.4
0	135400	2617.4	3.4
0	135401	2617.4	2.4
0	135503	2617.5	1.5
0	135546	2618.5	1.5
0	135624	2619.5	1.5
0	135666	2620.5	1.5
0	135708	2621.5	1.5
0	135752	2622.5	1.5
0	135795	2623.5	1.5
0	135838	2624.5	1.5
0	135881	2625.5	1.5
0	135924	2626.5	1.5
0	135967	2627.5	1.5
0	136010	2628.5	1.5
0	136053	2629.5	1.5
0	136097	2630.5	1.5
0	136186	2631.5	1.5
0	136274	2632.5	1.5
0	136321	2633.5	1.5
0	136709	2634.5	1.5
0	137313	2635.2	102.2
0	137334	2635.5	1.5
0	137602	2636.5	1.5
0	137650	2637.5	1.5
0	137698	2638.5	1.5
0	137744	2639.5	1.5
0	137790	2640.5	1.5
0	137839	2641.5	1.5
0	137886	2642.5	1.5
0	137933	2643.5	1.5
0	137984	2644.3	1.3
0	138032	2645.3	1.3
0	138078	2646.3	1.3
0	138124	2647.3	1.3
0	138170	2648.3	1.3
0	138216	2649.3	1.3
0	138262	2650.3	1.3
0	138308	2651.3	1.3
0	138354	2652.3	1.3
0	138400	2653.3	1.3
0	138446	2654.3	1.3
0	138492	2655.3	1.3
0	138540	2656.3	1.3
0	138586	2657.3	1.3
0	138632	2658.3	1.3
0	138678	2659.3	1.3
0	138724	2660.3	1.3
0	138769	2661.3	1.3
0	138814	2662.3	1.3
0	138859	2663.3	1.3
0	138905	2664.3	1.3
0	138949	2665.3	1.3
0	138993	2666.3	1.3
0	139037	2667.3	1.3
0	139081	2668.3	1.3
0	139125	2669.3	1.3
0	139216	2670.3	1.3
0	139260	2671.3	1.3
0	139304	2672.3	1.3
0	139393	2673.3	1.3
0	139479	2674.3	1.3
0	139526	2675.3	1.3
0	139573	2676.3	1.3
0	139621	2677.3	1.3
0	139667	2678.3	1.3
0	139713	2679.3	1.3
0	139759	2680.3	1.3
0	139805	2681.3	1.3
0	139851	2682.3	1.3
0	139897	2683.3	1.3
0	139944	2684.3	1.3
0	139989	2685.3	1.3
0	140028	2686.3	1.3
0	142055	2751.4	64.4
0	142056	2751.4	63.4
0	142057	2751.4	62.4
0	142058	2751.4	61.4
0	142059	2751.4	60.4
0	142060	2751.4	59.4
0	142061	2751.4	58.4
0	142062	2751.4	57.4
0	142063	2751.4	56.4
0	142064	2751.4	55.4
0	142065	2751.4	54.4
0	142066	2751.4	53.4
0	142067	2751.4	52.4
0	142068	2751.4	51.4
0	142069	2751.4	50.4
0	142070	2751.4	49.4
0	142071	2751.4	48.4
0	142072	2751.4	47.4
0	142073	2751.4	46.4
0	142074	2751.4	45.4
0	142075	2751.4	44.4
0	142076	2751.4	43.4
0	142077	2751.4	42.4
0	142078	2751.4	41.4
0	142079	2751.4	40.4
0	142080	2751.4	39.4
0	142081	2751.4	38.4
0	142082	2751.4	37.4
0	142083	2751.4	36.4
0	142084	2751.4	35.4
0	142085	2751.4	34.4
0	142086	2751.4	33.4
0	142087	2751.4	32.4
0	142088	2751.4	31.4
0	142089	2751.4	30.4
0	142090	2751.4	29.4
0	142091	2751.4	28.4
0	142092	2751.4	27.4
0	142093	2751.4	26.4
0	142094	2751.4	25.4
0	142095	2751.4	24.4
0	142096	2751.4	23.4
0	142097	2751.4	22.4
0	142098	2751.4	21.4
0	142099	2751.4	20.4
0	142100	2751.4	19.4
0	142101	2751.4	18.4
0	142102	2751.4	17.4
0	142103	2751.4	16.4
0	142104	2751.4	15.4
0	142105	2751.4	14.4
0	142106	2751.4	13.4
0	142107	2751.4	12.4
0	142108	2751.4	11.4
0	142109	2751.4	10.4
0	142110	2751.4	9.4
0	142111	2751.4	8.4
0	142112	2751.4	7.4
0	142113	2751.4	6.4
0	142114	2751.4	5.4
0	142115	2751.4	4.4
0	142116	2751.4	3.4
0	142117	2751.4	2.4
0	142444	2751.5	1.5
0	142612	2752.5	1.5
0	142640	2753.5	1.5
0	143182	2759.5	6.5
0	143183	2759.5	5.5
0	143184	2759.5	4.5
0	143185	2759.5	3.5
0	143186	2759.5	2.5
0	143187	2759.5	1.5
0	143188	2759.5	73.5
0	143270	2760.5	1.5
0	143344	2761.5	1.5
0	143388	2762.5	1.5
0	143432	2763.5	1.5
0	143476	2764.5	1.5
0	143520	2765.5	1.5
0	143564	2766.5	1.5
0	143608	2767.5	1.5
0	143652	2768.5	1.5
0	143696	2769.5	1.5
0	143740	2770.5	1.5
0	143784	2771.5	1.5
0	143830	2772.5	1.5
0	143875	2773.5	1.5
0	143920	2774.5	1.5
0	143965	2775.5	1.5
0	144010	2776.5	1.5
0	144055	2777.5	1.5
0	144100	2778.5	1.5
0	144145	2779.5	1.5
0	144194	2780.5	1.5
0	144240	2781.5	1.5
0	144286	2782.5	1.5
0	144332	2783.5	1.5
0	144378	2784.5	1.5
0	144424	2785.5	1.5
0	144469	2786.5	1.5
0	144512	2787.5	1.5
0	144555	2788.5	1.5
0	144598	2789.5	1.5
0	144641	2790.5	1.5
0	144684	2791.5	1.5
0	144733	2792.5	1.5
0	144779	2793.5	1.5
0	144813	2794.5	1.5
0	144851	2795.5	1.5
0	144887	2796.5	1.5
0	144923	2797.5	1.5
0	144963	2798.5	1.5
0	145002	2799.5	1.5
0	145039	2800.5	1.5
0	145076	2801.5	1.5
0	145113	2802.5	1.5
0	145150	2803.5	1.5
0	145187	2804.5	1.5
0	145224	2805.5	1.5
0	145536	2806.5	1.5
0	147933	2887.1	80.1
0	147934	2887.1	79.1
0	147935	2887.1	78.1
0	147936	2887.1	77.1
0	147937	2887.1	76.1
0	147938	2887.1	75.1
0	147939	2887.1	74.1
0	147940	2887.1	73.1
0	147941	2887.1	72.1
0	147942	2887.1	71.1
0	147943	2887.1	70.1
0	147944	2887.1	69.1
0	147945	2887.1	68.1
0	147946	2887.1	67.1
0	147947	2887.1	66.1
0	147948	2887.1	65.1
0	147949	2887.1	64.1
0	147950	2887.1	63.1
0	147951	2887.1	62.1
0	147952	2887.1	61.1
0	147953	2887.1	60.1
0	147954	2887.1	81.1
0	147955	2887.1	59.1
0	147956	2887.1	58.1
0	147957	2887.1	57.1
0	147958	2887.1	56.1
0	147959	2887.1	55.1
0	147960	2887.1	54.1
0	147961	2887.1	53.1
0	147962	2887.1	52.1
0	147963	2887.1	51.1
0	147964	2887.1	50.1
0	147965	2887.1	49.1
0	147966	2887.1	48.1
0	147967	2887.1	47.1
0	147968	2887.1	46.1
0	147969	2887.1	45.1
0	147970	2887.1	44.1
0	147971	2887.1	43.1
0	147972	2887.1	42.1
0	147973	2887.1	41.1
0	147974	2887.1	40.1
0	147975	2887.1	39.1
0	147976	2887.1	38.1
0	147977	2887.1	37.1
0	147978	2887.1	36.1
0	147979	2887.1	35.1
0	147980	2887.1	34.1
0	147981	2887.1	33.1
0	147982	2887.1	32.1
0	147983	2887.1	31.1
0	147984	2887.1	30.1
0	147985	2887.1	29.1
0	147986	2887.1	28.1
0	147987	2887.1	27.1
0	147988	2887.1	26.1
0	147989	2887.1	25.1
0	147990	2887.1	24.1
0	147991	2887.1	23.1
0	147992	2887.1	22.1
0	147993	2887.1	21.1
0	147994	2887.1	20.1
0	147995	2887.1	19.1
0	147996	2887.1	18.1
0	149229	2895.6	25.6
0	149230	2895.6	24.6
0	149231	2895.6	23.6
0	149232	2895.6	22.6
0	149233	2895.6	21.6
0	149234	2895.6	20.6
0	149235	2895.6	19.6
0	149236	2895.6	18.6
0	149237	2895.6	17.6
0	149238	2895.6	16.6
0	149239	2895.6	15.6
0	149240	2895.6	14.6
0	149241	2895.6	13.6
0	149242	2895.6	12.6
0	149243	2895.6	11.6
0	149244	2895.6	10.6
0	149245	2895.6	9.6
0	149246	2895.6	8.6
0	149247	2895.6	7.6
0	149248	2895.6	6.6
0	149249	2895.6	5.6
0	149250	2895.6	4.6
0	149251	2895.6	3.6
0	149252	2895.6	2.6
0	149253	2895.6	1.6
0	149429	2896.6	1.6
0	149535	2897.6	1.6
0	149598	2898.6	1.6
0	149658	2899.6	1.6
0	149718	2900.6	1.6
0	149778	2901.6	1.6
0	149838	2902.6	1.6
0	149898	2903.6	1.6
0	149958	2904.6	1.6
0	150018	2905.6	1.6
0	150078	2906.6	1.6
0	150136	2907.6	1.6
0	150182	2908.6	1.6
0	150226	2909.5	1.5
0	150270	2910.5	1.5
0	150314	2911.5	1.5
0	150358	2912.5	1.5
0	150405	2913.5	1.5
0	150444	2914.5	1.5
0	150526	2916.5	2.5
0	150527	2916.5	1.5
0	150573	2917.5	1.5
0	150620	2918.5	1.5
0	150665	2919.5	1.5
0	150708	2920.5	1.5
0	150751	2921.5	1.5
0	150794	2922.5	1.5
0	150837	2923.5	1.5
0	150874	2924.5	1.5
0	152220	2994.4	70.4
0	152221	2994.4	69.4
0	152222	2994.4	68.4
0	152223	2994.4	67.4
0	152224	2994.4	66.4
0	152225	2994.4	65.4
0	152226	2994.4	64.4
0	152227	2994.4	63.4
0	152228	2994.4	62.4
0	152229	2994.4	61.4
0	152230	2994.4	60.4
0	152231	2994.4	59.4
0	152232	2994.4	58.4
0	152233	2994.4	57.4
0	152234	2994.4	56.4
0	152235	2994.4	55.4
0	152236	2994.4	54.4
0	152237	2994.4	53.4
0	152238	2994.4	52.4
0	152239	2994.4	51.4
0	152240	2994.4	50.4
0	152241	2994.4	49.4
0	152242	2994.4	48.4
0	152243	2994.4	47.4
0	152244	2994.4	46.4
0	152245	2994.4	45.4
0	152246	2994.4	44.4
0	152247	2994.4	43.4
0	152248	2994.4	42.4
0	152249	2994.4	41.4
0	153051	3029.7	75.7
0	153052	3029.7	74.7
0	153053	3029.7	73.7
0	153054	3029.7	72.7
0	153055	3029.7	71.7
0	153056	3029.7	70.7
0	153057	3029.7	69.7
0	153058	3029.7	68.7
0	153059	3029.7	67.7
0	153060	3029.7	66.7
0	153061	3029.7	65.7
0	156755	3064.4	99.4
0	156756	3064.4	98.4
0	156757	3064.4	97.4
0	156758	3064.4	96.4
0	156759	3064.4	95.4
0	156760	3064.4	94.4
0	156761	3064.4	93.4
0	156762	3064.4	92.4
0	156763	3064.4	91.4
0	156764	3064.4	90.4
0	156765	3064.4	89.4
0	156766	3064.4	88.4
0	156767	3064.4	87.4
0	156768	3064.4	86.4
0	156769	3064.4	85.4
0	156770	3064.4	84.4
0	156771	3064.4	83.4
0	156772	3064.4	82.4
0	156773	3064.4	81.4
0	156774	3064.4	80.4
0	156775	3064.4	79.4
0	156776	3064.4	78.4
0	156777	3064.4	77.4
0	156778	3064.4	76.4
0	156779	3064.4	75.4
0	156780	3064.4	74.4
0	156781	3064.4	73.4
0	156782	3064.4	72.4
0	156783	3064.4	71.4
0	156784	3064.4	70.4
0	156785	3064.4	69.4
0	156786	3064.4	68.4
0	156787	3064.4	67.4
0	156788	3064.4	66.4
0	156789	3064.4	65.4
0	156790	3064.4	64.4
0	156791	3064.4	63.4
0	156792	3064.4	62.4
0	156793	3064.4	61.4
0	156794	3064.4	60.4
0	156795	3064.4	59.4
0	156796	3064.4	58.4
0	156797	3064.4	57.4
0	156798	3064.4	56.4
0	156799	3064.4	55.4
0	156800	3064.4	54.4
0	156801	3064.4	53.4
0	156802	3064.4	52.4
0	156803	3064.4	51.4
0	156804	3064.4	50.4
0	156805	3064.4	49.4
0	156806	3064.4	48.4
0	156807	3064.4	47.4
0	156808	3064.4	46.4
0	156809	3064.4	45.4
0	156810	3064.4	44.4
0	156811	3064.4	43.4
0	156812	3064.4	42.4
0	156813	3064.4	41.4
0	156814	3064.4	40.4
0	156815	3064.4	39.4
0	156816	3064.4	38.4
0	156817	3064.4	37.4
0	156818	3064.4	36.4
0	156819	3064.4	35.4
0	156820	3064.4	34.4
0	156821	3064.4	33.4
0	156822	3064.4	32.4
0	156823	3064.4	31.4
0	156824	3064.4	30.4
0	156825	3064.4	29.4
0	156826	3064.4	28.4
0	156827	3064.4	27.4
0	156828	3064.4	26.4
0	156829	3064.4	25.4
0	156830	3064.4	24.4
0	156831	3064.4	23.4
0	156832	3064.4	22.4
0	156833	3064.4	21.4
0	156834	3064.4	20.4
0	156835	3064.4	19.4
0	156836	3064.4	18.4
0	156837	3064.4	17.4
0	156838	3064.4	16.4
0	156839	3064.4	15.4
0	156840	3064.4	14.4
0	156841	3064.4	13.4
0	156842	3064.4	12.4
0	156843	3064.4	11.4
0	156844	3064.4	10.4
0	156845	3064.4	9.4
0	156846	3064.4	8.4
0	156847	3064.4	7.4
0	156848	3064.4	6.4
0	156849	3064.4	5.4
0	156850	3064.4	4.4
0	156851	3064.4	3.4
0	156852	3064.4	2.4
0	156853	3064.4	1.4
0	157596	3065.4	1.4
0	157657	3066.4	1.4
0	157715	3067.4	1.4
0	157773	3068.4	1.4
0	157831	3069.4	1.4
0	157889	3070.4	1.4
0	157947	3071.4	1.4
0	158005	3072.4	1.4
0	158063	3073.4	1.4
0	158121	3074.4	1.4
0	158179	3075.4	1.4
0	158237	3076.4	1.4
0	158295	3077.4	1.4
0	158353	3078.4	1.4
0	158412	3079.4	1.4
0	158470	3080.4	1.4
0	158520	3081.4	1.4
0	158857	3089.2	8.2
0	158858	3089.2	7.2
0	158859	3089.2	6.2
0	158860	3089.2	5.2
0	158861	3089.2	4.2
0	158862	3089.2	3.2
0	158863	3089.2	2.2
0	158927	3089.4	1.4
0	158998	3090.4	1.4
0	159070	3091.5	1.5
0	159142	3092.5	1.5
0	159240	3093.5	1.5
0	159338	3094.5	1.5
0	159404	3095.5	1.5
0	159470	3096.5	1.5
0	159536	3097.5	1.5
0	159606	3098.5	1.5
0	159676	3099.5	1.5
0	159749	3100.5	1.5
0	159820	3101.5	1.5
0	159894	3102.5	1.5
0	159964	3103.5	1.5
0	160026	3104.4	1.4
0	160092	3105.4	1.4
0	160160	3106.4	1.4
0	160228	3107.4	1.4
0	160296	3108.4	1.4
0	160364	3109.4	1.4
0	160432	3110.4	1.4
0	160500	3111.4	1.4
0	160570	3112.4	1.4
0	160639	3113.4	1.4
0	160708	3114.4	1.4
0	160777	3115.4	1.4
0	160855	3116.4	1.4
0	160922	3117.4	1.4
0	160989	3118.4	1.4
0	161056	3119.4	1.4
0	161123	3120.4	1.4
0	161190	3121.4	1.4
0	161257	3122.4	1.4
0	161324	3123.4	1.4
0	161391	3124.4	1.4
0	161458	3125.4	1.4
0	161525	3126.4	1.4
0	161603	3127.4	1.4
0	161681	3128.4	1.4
0	161748	3129.4	1.4
0	161826	3130.4	1.4
0	161893	3131.4	1.4
0	161935	3132.4	1.4
0	167011	3261.6	129.6
0	167012	3261.6	128.6
0	167013	3261.6	127.6
0	167014	3261.6	126.6
0	167015	3261.6	125.6
0	167016	3261.6	124.6
0	167017	3261.6	123.6
0	167018	3261.6	122.6
0	167019	3261.6	121.6
0	167020	3261.6	120.6
0	167021	3261.6	119.6
0	167022	3261.6	118.6
0	167023	3261.6	117.6
0	167024	3261.6	116.6
0	167025	3261.6	115.6
0	167026	3261.6	114.6
0	167027	3261.6	113.6
0	167028	3261.6	112.6
0	167029	3261.6	111.6
0	167030	3261.6	110.6
0	167031	3261.6	109.6
0	167032	3261.6	108.6
0	167033	3261.6	107.6
0	167034	3261.6	106.6
0	167035	3261.6	105.6
0	167036	3261.6	104.6
0	167037	3261.6	103.6
0	167038	3261.6	102.6
0	167039	3261.6	101.6
0	167040	3261.6	100.6
0	167041	3261.6	99.6
0	167042	3261.6	98.6
0	167043	3261.6	97.6
0	167044	3261.6	96.6
0	167045	3261.6	95.6
0	167046	3261.6	94.6
0	167047	3261.6	93.6
0	167048	3261.6	92.6
0	167049	3261.6	91.6
0	167050	3261.6	90.6
0	167051	3261.6	89.6
0	167052	3261.6	88.6
0	167053	3261.6	87.6
0	167054	3261.6	86.6
0	167055	3261.6	85.6
0	167056	3261.6	84.6
0	167057	3261.6	83.6
0	167058	3261.6	82.6
0	167059	3261.6	81.6
0	167060	3261.6	80.6
0	167061	3261.6	79.6
0	167062	3261.6	78.6
0	167063	3261.6	77.6
0	167064	3261.6	76.6
0	167065	3261.6	75.6
0	167066	3261.6	74.6
0	167067	3261.6	73.6
0	167068	3261.6	72.6
0	167069	3261.6	71.6
0	167070	3261.6	70.6
0	167071	3261.6	69.6
0	167072	3261.6	68.6
0	167073	3261.6	67.6
0	167074	3261.6	66.6
0	167075	3261.6	65.6
0	167076	3261.6	64.6
0	167077	3261.6	63.6
0	167078	3261.6	62.6
0	167079	3261.6	61.6
0	167080	3261.6	60.6
0	167081	3261.6	59.6
0	167082	3261.6	58.6
0	167083	3261.6	57.6
0	167084	3261.6	56.6
0	167085	3261.6	55.6
0	167086	3261.6	54.6
0	167087	3261.6	53.6
0	167088	3261.6	52.6
0	167089	3261.6	51.6
0	167090	3261.6	50.6
0	167091	3261.6	49.6
0	167092	3261.6	48.6
0	167093	3261.6	47.6
0	167094	3261.6	46.6
0	167095	3261.6	45.6
0	167096	3261.6	44.6
0	167097	3261.6	43.6
0	167098	3261.6	42.6
0	167099	3261.6	41.6
0	167100	3261.6	40.6
0	167101	3261.6	39.6
0	167102	3261.6	38.6
0	167103	3261.6	37.6
0	167104	3261.6	36.6
0	167105	3261.6	35.6
0	167106	3261.6	34.6
0	167107	3261.6	33.6
0	167108	3261.6	32.6
0	167109	3261.6	31.6
0	167110	3261.6	30.6
0	167111	3261.6	29.6
0	167112	3261.6	28.6
0	167113	3261.6	27.6
0	167114	3261.6	26.6
0	167115	3261.6	25.6
0	167116	3261.6	24.6
0	167117	3261.6	23.6
0	167118	3261.6	22.6
0	167119	3261.6	21.6
0	167120	3261.6	20.6
0	167121	3261.6	19.6
0	167122	3261.6	18.6
0	167123	3261.6	17.6
0	167124	3261.6	16.6
0	167125	3261.6	15.6
0	167126	3261.6	14.6
0	167127	3261.6	13.6
0	167128	3261.6	12.6
0	167129	3261.6	11.6
0	167130	3261.6	10.6
0	167131	3261.6	9.6
0	167132	3261.6	8.6
0	167133	3261.6	7.6
0	167134	3261.6	6.6
0	167135	3261.6	5.6
0	167136	3261.6	4.6
0	167137	3261.6	3.6
0	167138	3261.6	2.6
0	167139	3261.6	1.6
0	169406	3270.3	8.3
0	169407	3270.3	7.3
0	169408	3270.3	6.3
0	169409	3270.3	5.3
0	169410	3270.3	4.3
0	169411	3270.3	3.3
0	169412	3270.3	2.3
0	169461	3270.4	1.4
0	169527	3271.4	1.4
0	169579	3272.4	1.4
0	169631	3273.4	1.4
0	169683	3274.4	1.4
0	169735	3275.4	1.4
0	169787	3276.4	1.4
0	169839	3277.4	1.4
0	169891	3278.4	1.4
0	169948	3279.4	1.4
0	170002	3280.4	1.4
0	170056	3281.4	1.4
0	170115	3282.4	1.4
0	170176	3283.4	1.4
0	170233	3284.4	1.4
0	170290	3285.4	1.4
0	170347	3286.4	1.4
0	170409	3287.4	1.4
0	170468	3288.4	1.4
0	170529	3289.4	1.4
0	170589	3290.4	1.4
0	170649	3291.4	1.4
0	170709	3292.4	1.4
0	170775	3293.4	1.4
0	170837	3294.4	1.4
0	170899	3295.4	1.4
0	170961	3296.4	1.4
0	171023	3297.4	1.4
0	171085	3298.4	1.4
0	171147	3299.4	1.4
0	171209	3300.4	1.4
0	171259	3301.3	1.3
0	171306	3302.3	1.3
0	171359	3303.3	1.3
0	171408	3304.3	1.3
0	171457	3305.3	1.3
0	171506	3306.3	1.3
0	171560	3307.3	1.3
0	171610	3308.3	1.3
0	171661	3309.3	1.3
0	171710	3310.3	1.3
0	171759	3311.3	1.3
0	171817	3312.3	1.3
0	171874	3313.3	1.3
0	171928	3314.3	1.3
0	171982	3315.3	1.3
0	172037	3316.3	1.3
0	172090	3317.3	1.3
0	172143	3318.3	1.3
0	172196	3319.3	1.3
0	172247	3320.3	1.3
0	172298	3321.3	1.3
0	172349	3322.3	1.3
0	172400	3323.3	1.3
0	172451	3324.3	1.3
0	172507	3325.3	1.3
0	172560	3326.3	1.3
0	172613	3327.3	1.3
0	172666	3328.3	1.3
0	172719	3329.3	1.3
0	172773	3330.3	1.3
0	172818	3331.3	1.3
0	172907	3333.3	2.3
0	172908	3333.3	1.3
0	172967	3334.3	1.3
0	173015	3335.3	1.3
0	173063	3336.3	1.3
0	173111	3337.3	1.3
0	173159	3338.3	1.3
0	173207	3339.3	1.3
0	173255	3340.3	1.3
0	173295	3341.3	1.3
0	173375	3343.3	2.3
0	173376	3343.3	1.3
0	173429	3344.3	1.3
0	173478	3345.3	1.3
0	173523	3346.3	1.3
0	173567	3347.3	1.3
0	173611	3348.3	1.3
0	173655	3349.3	1.3
0	173699	3350.3	1.3
0	173743	3351.3	1.3
0	173787	3352.3	1.3
0	173833	3353.3	1.3
0	173877	3354.3	1.3
0	173921	3355.3	1.3
0	173965	3356.3	1.3
0	174009	3357.3	1.3
0	174053	3358.3	1.3
0	174097	3359.3	1.3
0	174528	3360.3	1.3
0	174574	3361.3	1.3
0	174748	3362.3	1.3
0	174797	3363.3	1.3
0	174836	3364.3	1.3


