version 2
run General-0-20250114-10:59:20-61779
attr configname General
attr datetime 20250114-10:59:20
attr experiment General
attr inifile shaw.ini
attr iterationvars ""
attr iterationvarsf ""
attr measurement ""
attr network src.dtnsim
attr processid 61779
attr repetition 0
attr replication #0
attr resultdir results
attr runnumber 0
attr seedset 0
param dtnsim.central.contactsFile "\"contactPlan/Contacts.txt\""
param dtnsim.central.contactsFile_A "\"contactPlan/Contacts_A.txt\""
param dtnsim.central.contactsFile_B "\"contactPlan/Contacts_B.txt\""
param dtnsim.central.contactIdsToDelete_from_celestialA "\"2 4 8 14 17 19 21 24 33 37 44 52 59 61 69 70 75 81 84 85 86 88 95 100 104 108 116 118 119 120 121 123 124 128 131 132 133 134 136 154 156 157 158 159 166 169 172 176 177 180 181 188 189 192 197 198 204 214 216 218 219 222 223 224 231 240 245 247 249 252 255 257 258 261 263 268 271 272 286 288 293 296 301 306 311 312 325 329 330 333 337 340 347 348 350 351 356 367 376 384 389 391 392 394 396 403 407 408 410 412 413 419 420 423 424 434 440 441 443 445 446 447 449 451 452 455 462 464 465 466 468 471 473 475 481 482 485 486 488 490 493 494 495 505 514 524 528 531 538 539 542 543 544 549 552 553 555 557 559 562 563 564 571 579 580 581 583 587 593 597 599 600 602 603 608 610 612 618 621 622 623 631 633 641 644 651 655 656 661 663 672 679 680 681 682 683 685 688 689 691 700 704 708 712 713 720 722 725 726 729 733 738 739 742 744 746 747 748 751 754 755 758 761 764 765 766 767 768 769 770 774 775 788 789 792 795 796 800 802 808 813 814 815 816 823 834 838 843 844 845 852 854 855 856 858 868 869 880 881 883 884 885 892 895 904 906 907 909 910 916 917 919 920 926 928 931 935 936 941 942 946 950 964 978 980 981 983 992 994\""
param dtnsim.central.contactIdsToDelete_from_celestialB "\"225 228 362 381 519 537 632 760 893 922 957\""
param dtnsim.central.celestialA_nodes "\"1 2 3\""
param dtnsim.central.celestialB_nodes "\"4 5 6\""
param dtnsim.central.locallyfaultsAware true
param dtnsim.central.mode_two_celestial true
param dtnsim.nodesNumber 6
param dtnsim.node[1].icon "\"receiverdish\""
param dtnsim.node[2..5].icon "\"satellite\""
param dtnsim.node[6].icon "\"receiverdish\""
param dtnsim.node[*].dtn.routing "\"cgrModel350\""
param dtnsim.node[*].dtn.routingType "\"routeListType:allPaths-firstEnding,volumeAware:allContacts,extensionBlock:on,contactPlan:global\""
param dtnsim.node[1].app.enable true
param dtnsim.node[*].app.custodyTransfer true
param dtnsim.node[1].app.bundlesNumber "\"1000\""
param dtnsim.node[1].app.start "\"0\""
param dtnsim.node[1].app.destinationEid "\"6\""
param dtnsim.node[1].app.size "\"1500\""
param dtnsim.node[1].app.interval 1

vector 0 dtnsim.node[6].app appBundleReceivedDelayvec:vector ETV
attr interpolationmode none
attr source appBundleReceivedDelay
attr title "appBundleReceivedDelayvec, vector"
0	268	17	17
0	274	17	6
0	280	17	16
0	286	17	5
0	292	17	15
0	298	17	4
0	304	17	14
0	310	17	3
0	316	17	13
0	322	17	2
0	328	17	12
0	334	17	1
0	340	17	11
0	346	17	10
0	352	17	9
0	358	17	8
0	364	17	7
0	425	20	3
0	436	20	2
0	443	20	1
0	462	21	1
0	485	22	1
0	505	23	1
0	568	26	3
0	580	26	2
0	587	26	1
0	605	27	1
0	630	28	1
0	654	29	1
0	679	30	1
0	719	32	2
0	730	32	1
0	744	33	1
0	966	47	14
0	976	47	13
0	983	47	12
0	989	47	11
0	995	47	10
0	1001	47	9
0	1007	47	8
0	1013	47	7
0	1019	47	6
0	1025	47	5
0	1031	47	4
0	1037	47	3
0	1043	47	2
0	1049	47	1
0	1065	48	1
0	1090	49	1
0	1109	50	1
0	1150	52	2
0	1157	52	1
0	1692	84	32
0	1704	84	31
0	1714	84	30
0	1721	84	29
0	1727	84	28
0	1733	84	27
0	1739	84	26
0	1745	84	25
0	1751	84	24
0	1757	84	23
0	1763	84	22
0	1769	84	21
0	1775	84	20
0	1781	84	19
0	1787	84	18
0	1793	84	17
0	1799	84	16
0	1805	84	15
0	1811	84	14
0	1817	84	13
0	1823	84	12
0	1829	84	11
0	1835	84	10
0	1841	84	9
0	1847	84	8
0	1853	84	7
0	1859	84	6
0	1865	84	5
0	1871	84	4
0	1877	84	3
0	1883	84	2
0	1889	84	1
0	1903	85	1
0	1944	87	2
0	1955	87	1
0	1973	88	1
0	2000	89	1
0	2050	94	5
0	2056	94	4
0	2182	99	8
0	2194	99	7
0	2201	99	6
0	2207	99	5
0	2213	99	4
0	2219	99	3
0	2225	99	2
0	2231	99	1
0	2248	100	1
0	2271	101	1
0	2424	110	9
0	2609	116	14
0	2618	116	13
0	2627	116	12
0	2636	116	116
0	2645	116	115
0	2654	116	114
0	2663	116	113
0	2672	116	112
0	2681	116	111
0	2690	116	11
0	2699	116	110
0	2706	116	10
0	2712	116	109
0	2718	116	9
0	2724	116	108
0	2730	116	8
0	2736	116	107
0	2742	116	7
0	2748	116	106
0	2754	116	6
0	2760	116	5
0	2766	116	4
0	2814	117	117
0	2820	117	116
0	2826	117	115
0	2832	117	114
0	2838	117	113
0	2844	117	112
0	2850	117	111
0	2856	117	110
0	2862	117	109
0	2868	117	108
0	2874	117	107
0	3012	120	103
0	3024	120	102
0	3031	120	101
0	3403	128	117
0	3418	128	116
0	3428	128	115
0	3435	128	114
0	3441	128	113
0	3447	128	112
0	3453	128	15
0	3459	128	14
0	3465	128	13
0	3471	128	117
0	3477	128	116
0	3483	128	115
0	3489	128	114
0	3495	128	113
0	3501	128	112
0	3507	128	12
0	3513	128	11
0	3519	128	10
0	3525	128	111
0	3531	128	110
0	3537	128	109
0	3543	128	9
0	3549	128	108
0	3555	128	8
0	3561	128	107
0	3567	128	7
0	3573	128	106
0	3579	128	6
0	3585	128	5
0	3591	128	4
0	3597	128	105
0	3603	128	104
0	3609	128	103
0	3615	128	102
0	3621	128	105
0	3627	128	104
0	3633	128	103
0	3639	128	3
0	3645	128	102
0	3651	128	2
0	3657	128	101
0	3663	128	101
0	3669	128	1
0	3692	129	101
0	3707	129	1
0	3730	130	101
0	3736	130	1
0	4015	140	110
0	4030	140	10
0	4040	140	109
0	4047	140	9
0	4053	140	108
0	4059	140	8
0	4065	140	7
0	4071	140	6
0	4077	140	5
0	4083	140	4
0	4089	140	3
0	4095	140	107
0	4101	140	106
0	4107	140	105
0	4113	140	104
0	4119	140	103
0	4125	140	102
0	4131	140	2
0	4137	140	101
0	4143	140	1
0	4169	141	101
0	4187	141	1
0	4245	142	122
0	4251	142	101
0	4257	142	121
0	4263	142	1
0	4269	142	120
0	4275	142	114
0	4281	142	113
0	4287	142	112
0	4293	142	111
0	4299	142	110
0	4392	144	102
0	4413	144	2
0	4434	144	101
0	4449	144	1
0	4461	144	144
0	4472	144	133
0	4483	144	143
0	4494	144	132
0	4505	144	142
0	4516	144	131
0	4527	144	141
0	4538	144	130
0	4549	144	140
0	4560	144	129
0	4571	144	139
0	4582	144	128
0	4593	144	138
0	4604	144	137
0	4615	144	136
0	4626	144	135
0	4637	144	134
0	4648	144	127
0	4659	144	126
0	4670	144	125
0	4681	144	124
0	4692	144	123
0	4703	144	122
0	4714	144	121
0	4725	144	120
0	4736	144	119
0	4747	144	118
0	4758	144	117
0	4769	144	116
0	4776	144	115
0	4782	144	114
0	4788	144	113
0	4794	144	112
0	4814	145	101
0	4830	145	1
0	4886	146	101
0	4900	146	1
0	5020	147	114
0	5040	147	113
0	5055	147	112
0	5067	147	111
0	5078	147	110
0	5089	147	109
0	5100	147	108
0	5111	147	107
0	5122	147	106
0	5133	147	105
0	5144	147	104
0	5155	147	103
0	5166	147	102
0	5177	147	101
0	5184	147	101
0	5190	147	1
0	5196	147	114
0	5202	147	113
0	5208	147	112
0	5214	147	111
0	5220	147	110
0	5226	147	109
0	5232	147	108
0	5238	147	107
0	5244	147	106
0	5250	147	105
0	5256	147	104
0	5262	147	103
0	5268	147	102
0	5274	147	101
0	5309	148	101
0	5329	148	1
0	5340	148	101
0	5347	148	101
0	5377	149	101
0	5389	149	1
0	5396	149	101
0	5402	149	101
0	5425	150	101
0	5432	150	101
0	5480	152	102
0	5491	152	101
0	5502	152	102
0	5509	152	101
0	5560	156	104
0	5567	156	103
0	5573	156	102
0	5579	156	101
0	5601	157	101
0	5705	158	101
0	5837	160	111
0	5851	160	11
0	5865	160	10
0	5879	160	110
0	5889	160	109
0	5896	160	9
0	5902	160	108
0	5908	160	8
0	5914	160	107
0	5920	160	7
0	5926	160	106
0	5932	160	6
0	5938	160	105
0	5944	160	5
0	5950	160	104
0	5956	160	4
0	5962	160	103
0	5968	160	3
0	5974	160	2
0	5980	160	1
0	6004	161	103
0	6018	161	102
0	6028	161	101
0	6035	161	1
0	6058	162	101
0	6072	162	1
0	6224	171	109
0	6230	171	9
0	6236	171	113
0	6242	171	108
0	6248	171	112
0	6254	171	8
0	6260	171	111
0	6266	171	110
0	6272	171	109
0	6278	171	108
0	6407	178	114
0	6414	178	113
0	6420	178	112
0	6426	178	111
0	6432	178	110
0	6438	178	109
0	6444	178	108
0	6450	178	107
0	6456	178	106
0	6462	178	105
0	6468	178	104
0	6474	178	103
0	6480	178	102
0	6486	178	101
0	6504	179	101
0	6521	180	101
0	6542	181	101
0	6562	182	101
0	6582	183	101
0	6630	184	132
0	6646	184	131
0	6654	184	130
0	6660	184	129
0	6666	184	128
0	6672	184	127
0	6678	184	126
0	6684	184	125
0	6690	184	124
0	6696	184	123
0	6702	184	122
0	6708	184	121
0	6714	184	120
0	6720	184	119
0	6726	184	118
0	6732	184	117
0	6738	184	116
0	6744	184	115
0	6750	184	114
0	6756	184	113
0	6762	184	112
0	6768	184	111
0	6774	184	110
0	6780	184	109
0	6786	184	108
0	6792	184	107
0	6798	184	106
0	6804	184	105
0	6810	184	104
0	6816	184	103
0	6822	184	102
0	6828	184	101
0	6834	184	101
0	6851	185	101
0	6868	185	101
0	7340	186	22
0	7358	186	21
0	7373	186	20
0	7384	186	19
0	7391	186	18
0	7397	186	122
0	7403	186	121
0	7409	186	120
0	7415	186	119
0	7421	186	118
0	7427	186	117
0	7433	186	17
0	7439	186	116
0	7445	186	16
0	7451	186	115
0	7457	186	15
0	7463	186	114
0	7469	186	14
0	7475	186	113
0	7481	186	13
0	7487	186	112
0	7493	186	12
0	7499	186	111
0	7505	186	11
0	7511	186	110
0	7517	186	10
0	7523	186	109
0	7529	186	9
0	7535	186	108
0	7541	186	8
0	7547	186	107
0	7553	186	7
0	7559	186	106
0	7565	186	6
0	7571	186	105
0	7577	186	5
0	7583	186	104
0	7589	186	4
0	7595	186	103
0	7601	186	3
0	7607	186	102
0	7613	186	2
0	7619	186	1
0	7649	187	102
0	7673	187	101
0	7689	187	102
0	7697	187	101
0	7703	187	1
0	7709	187	102
0	7715	187	101
0	7740	188	101
0	7758	188	101
0	7769	188	101
0	7776	188	1
0	7797	189	101
0	7805	189	101
0	7811	189	101
0	7817	189	1
0	7899	191	102
0	7911	191	2
0	7922	191	101
0	7929	191	1
0	7959	192	1
0	8000	193	1
0	8019	194	105
0	8038	194	104
0	8049	194	105
0	8056	194	104
0	8062	194	1
0	8091	195	1
0	8427	199	108
0	8439	199	4
0	8450	199	107
0	8466	199	3
0	8473	199	106
0	8487	199	2
0	8493	199	105
0	8505	199	108
0	8511	199	104
0	8518	199	107
0	8524	199	103
0	8530	199	106
0	8536	199	102
0	8542	199	105
0	8548	199	101
0	8554	199	104
0	8561	199	103
0	8567	199	102
0	8573	199	101
0	8579	199	108
0	8585	199	107
0	8591	199	106
0	8597	199	105
0	8603	199	104
0	8609	199	103
0	8615	199	102
0	8621	199	101
0	8627	199	1
0	8648	200	101
0	8662	200	101
0	8675	200	101
0	8682	200	1
0	8695	201	101
0	8702	201	101
0	9792	225	124
0	9802	225	123
0	9809	225	122
0	9815	225	121
0	9821	225	225
0	9827	225	224
0	9833	225	223
0	9839	225	222
0	9845	225	221
0	9851	225	220
0	9857	225	120
0	9863	225	219
0	9869	225	119
0	9875	225	218
0	9881	225	118
0	9887	225	217
0	9893	225	117
0	9899	225	216
0	9905	225	116
0	9911	225	215
0	9917	225	115
0	9923	225	114
0	9929	225	113
0	9935	225	125
0	9941	225	25
0	9947	225	124
0	9953	225	24
0	9959	225	23
0	9965	225	22
0	9971	225	21
0	9977	225	20
0	9983	225	19
0	9989	225	18
0	9995	225	17
0	10001	225	123
0	10007	225	122
0	10013	225	121
0	10019	225	225
0	10025	225	224
0	10031	225	223
0	10037	225	222
0	10043	225	221
0	10049	225	220
0	10055	225	120
0	10061	225	219
0	10067	225	119
0	10073	225	218
0	10079	225	118
0	10085	225	217
0	10091	225	117
0	10097	225	216
0	10103	225	116
0	10109	225	16
0	10115	225	215
0	10121	225	115
0	10127	225	15
0	10133	225	114
0	10139	225	14
0	10145	225	113
0	10151	225	13
0	10157	225	12
0	10163	225	11
0	10169	225	10
0	10175	225	9
0	10181	225	8
0	10187	225	7
0	10193	225	208
0	10199	225	207
0	10205	225	206
0	10211	225	112
0	10217	225	111
0	10223	225	110
0	10229	225	214
0	10235	225	213
0	10241	225	212
0	10247	225	211
0	10253	225	210
0	10259	225	209
0	10265	225	109
0	10271	225	108
0	10277	225	107
0	10283	225	208
0	10289	225	207
0	10295	225	206
0	10301	225	106
0	10307	225	6
0	10313	225	205
0	10319	225	105
0	10325	225	5
0	10331	225	204
0	10337	225	104
0	10343	225	4
0	10349	225	203
0	10355	225	103
0	10361	225	3
0	10367	225	102
0	10373	225	2
0	10379	225	101
0	10385	225	1
0	10408	226	1
0	10688	228	217
0	10703	228	216
0	10717	228	215
0	10732	228	214
0	10746	228	213
0	10761	228	212
0	10775	228	115
0	10790	228	114
0	10804	228	113
0	10819	228	112
0	10833	228	111
0	10848	228	110
0	10862	228	211
0	10873	228	210
0	10882	228	209
0	10889	228	109
0	10895	228	208
0	10901	228	108
0	10907	228	207
0	10913	228	107
0	10919	228	206
0	10925	228	106
0	10931	228	105
0	10937	228	104
0	10943	228	205
0	10949	228	204
0	10955	228	203
0	10961	228	202
0	10967	228	103
0	10973	228	102
0	10979	228	201
0	10985	228	101
0	11043	229	201
0	11057	229	101
0	11072	229	206
0	11082	229	205
0	11091	229	204
0	11098	229	104
0	11104	229	203
0	11110	229	103
0	11116	229	3
0	11122	229	202
0	11128	229	102
0	11134	229	2
0	11140	229	201
0	11146	229	101
0	11152	229	1
0	11181	230	201
0	11192	230	101
0	11199	230	201
0	11205	230	101
0	11211	230	1
0	11225	231	1
0	15683	301	281
0	15695	301	280
0	15705	301	279
0	15712	301	273
0	15718	301	272
0	15724	301	271
0	15730	301	270
0	15736	301	269
0	15742	301	301
0	15748	301	290
0	15754	301	300
0	15760	301	289
0	15766	301	299
0	15772	301	288
0	15778	301	298
0	15784	301	287
0	15790	301	297
0	15796	301	286
0	15802	301	296
0	15808	301	285
0	15814	301	295
0	15820	301	294
0	15826	301	293
0	15832	301	292
0	15838	301	291
0	15844	301	284
0	15850	301	283
0	15856	301	282
0	15862	301	281
0	15868	301	280
0	15874	301	279
0	15880	301	278
0	15886	301	277
0	15892	301	276
0	15898	301	275
0	15904	301	274
0	15910	301	273
0	15916	301	272
0	15922	301	271
0	15928	301	270
0	15934	301	269
0	15940	301	259
0	15946	301	159
0	15952	301	258
0	15958	301	158
0	15964	301	257
0	15970	301	157
0	15976	301	256
0	15982	301	156
0	15988	301	268
0	15994	301	267
0	16000	301	266
0	16006	301	265
0	16012	301	264
0	16018	301	263
0	16024	301	262
0	16030	301	261
0	16036	301	260
0	16042	301	259
0	16048	301	258
0	16054	301	257
0	16060	301	256
0	16066	301	255
0	16072	301	268
0	16078	301	267
0	16084	301	266
0	16090	301	265
0	16096	301	264
0	16102	301	263
0	16108	301	262
0	16114	301	261
0	16120	301	260
0	16126	301	259
0	16132	301	258
0	16138	301	257
0	16144	301	256
0	16150	301	255
0	16156	301	155
0	16162	301	254
0	16168	301	254
0	16174	301	154
0	16180	301	253
0	16186	301	253
0	16192	301	153
0	16198	301	252
0	16204	301	251
0	16210	301	250
0	16216	301	252
0	16222	301	152
0	16228	301	151
0	16234	301	251
0	16240	301	250
0	16246	301	150
0	16252	301	249
0	16258	301	149
0	16264	301	248
0	16270	301	148
0	16276	301	247
0	16282	301	147
0	16288	301	246
0	16294	301	146
0	16300	301	245
0	16306	301	145
0	16312	301	244
0	16318	301	144
0	16324	301	143
0	16330	301	142
0	16336	301	243
0	16342	301	242
0	16348	301	241
0	16354	301	141
0	16360	301	240
0	16366	301	140
0	16372	301	239
0	16378	301	139
0	16384	301	243
0	16390	301	238
0	16396	301	242
0	16402	301	138
0	16408	301	241
0	16414	301	240
0	16420	301	239
0	16426	301	271
0	16432	301	171
0	16438	301	270
0	16444	301	170
0	16450	301	269
0	16456	301	169
0	16462	301	168
0	16468	301	167
0	16474	301	166
0	16480	301	165
0	16486	301	164
0	16492	301	268
0	16498	301	267
0	16504	301	266
0	16510	301	265
0	16516	301	264
0	16522	301	263
0	16528	301	163
0	16534	301	262
0	16540	301	162
0	16546	301	261
0	16552	301	161
0	16558	301	260
0	16564	301	160
0	16570	301	259
0	16576	301	159
0	16582	301	258
0	16588	301	158
0	16594	301	257
0	16600	301	157
0	16606	301	256
0	16612	301	156
0	16618	301	254
0	16624	301	253
0	16630	301	252
0	16636	301	251
0	16642	301	250
0	16648	301	249
0	16654	301	248
0	16660	301	247
0	16666	301	246
0	16672	301	245
0	16678	301	244
0	16684	301	243
0	16690	301	242
0	16696	301	241
0	16702	301	240
0	16708	301	239
0	16714	301	238
0	16720	301	70
0	16726	301	69
0	16732	301	68
0	16738	301	67
0	16744	301	271
0	16750	301	171
0	16756	301	270
0	16762	301	170
0	16768	301	269
0	16774	301	169
0	16780	301	168
0	16786	301	167
0	16792	301	166
0	16798	301	66
0	16804	301	165
0	16810	301	65
0	16816	301	164
0	16822	301	64
0	16828	301	268
0	16834	301	267
0	16840	301	266
0	16846	301	265
0	16852	301	264
0	16858	301	263
0	16864	301	163
0	16870	301	63
0	16876	301	262
0	16882	301	162
0	16888	301	62
0	16894	301	261
0	16900	301	161
0	16906	301	61
0	16912	301	260
0	16918	301	160
0	16924	301	60
0	16930	301	59
0	16936	301	259
0	16942	301	159
0	16948	301	258
0	16954	301	158
0	16960	301	58
0	16966	301	257
0	16972	301	157
0	16978	301	57
0	16984	301	256
0	16990	301	156
0	16996	301	56
0	17002	301	255
0	17008	301	155
0	17014	301	55
0	17020	301	254
0	17026	301	154
0	17032	301	54
0	17038	301	253
0	17044	301	153
0	17050	301	53
0	17056	301	52
0	17062	301	51
0	17068	301	50
0	17074	301	49
0	17080	301	48
0	17086	301	47
0	17092	301	46
0	17098	301	45
0	17104	301	252
0	17110	301	152
0	17116	301	151
0	17122	301	251
0	17128	301	250
0	17134	301	150
0	17140	301	249
0	17146	301	149
0	17152	301	248
0	17158	301	148
0	17164	301	247
0	17170	301	147
0	17176	301	246
0	17182	301	146
0	17188	301	245
0	17194	301	145
0	17200	301	244
0	17206	301	144
0	17212	301	44
0	17218	301	143
0	17224	301	43
0	17230	301	142
0	17236	301	42
0	17242	301	243
0	17248	301	242
0	17254	301	241
0	17260	301	141
0	17266	301	41
0	17272	301	240
0	17278	301	140
0	17284	301	40
0	17290	301	239
0	17296	301	139
0	17302	301	39
0	17308	301	238
0	17314	301	138
0	17320	301	38
0	17326	301	37
0	17332	301	36
0	17338	301	35
0	17344	301	34
0	17350	301	33
0	17356	301	32
0	17362	301	31
0	17368	301	30
0	17374	301	29
0	17380	301	28
0	17386	301	218
0	17392	301	217
0	17398	301	216
0	17404	301	215
0	17410	301	27
0	17416	301	26
0	17422	301	25
0	17428	301	237
0	17434	301	236
0	17440	301	235
0	17446	301	234
0	17452	301	233
0	17458	301	232
0	17464	301	231
0	17470	301	230
0	17476	301	229
0	17482	301	228
0	17488	301	227
0	17494	301	226
0	17500	301	225
0	17506	301	224
0	17512	301	223
0	17518	301	222
0	17524	301	221
0	17530	301	220
0	17536	301	219
0	17542	301	218
0	17548	301	216
0	17554	301	215
0	17560	301	214
0	17566	301	24
0	17572	301	23
0	17578	301	22
0	17584	301	21
0	17590	301	20
0	17596	301	19
0	17602	301	18
0	17608	301	17
0	17614	301	137
0	17620	301	136
0	17626	301	135
0	17632	301	134
0	17638	301	133
0	17644	301	237
0	17650	301	236
0	17656	301	235
0	17662	301	234
0	17668	301	233
0	17674	301	232
0	17680	301	132
0	17686	301	231
0	17692	301	131
0	17698	301	230
0	17704	301	130
0	17710	301	229
0	17716	301	129
0	17722	301	228
0	17728	301	128
0	17734	301	227
0	17740	301	127
0	17746	301	226
0	17752	301	126
0	17758	301	225
0	17764	301	125
0	17770	301	224
0	17776	301	124
0	17782	301	223
0	17788	301	123
0	17794	301	222
0	17800	301	122
0	17806	301	221
0	17812	301	121
0	17818	301	220
0	17824	301	120
0	17830	301	219
0	17836	301	119
0	17842	301	218
0	17848	301	118
0	17854	301	217
0	17860	301	117
0	17866	301	116
0	17872	301	16
0	17878	301	216
0	17884	301	215
0	17890	301	115
0	17896	301	15
0	17902	301	214
0	17908	301	114
0	17914	301	14
0	17920	301	213
0	17926	301	213
0	17932	301	113
0	17938	301	13
0	17944	301	12
0	17950	301	212
0	17956	301	112
0	17962	301	211
0	17968	301	111
0	17974	301	212
0	17980	301	112
0	17986	301	211
0	17992	301	111
0	17998	301	11
0	18004	301	110
0	18010	301	109
0	18016	301	108
0	18022	301	212
0	18028	301	217
0	18034	301	211
0	18040	301	137
0	18046	301	136
0	18052	301	135
0	18058	301	134
0	18064	301	133
0	18070	301	237
0	18076	301	236
0	18082	301	235
0	18088	301	234
0	18094	301	233
0	18100	301	232
0	18106	301	132
0	18112	301	231
0	18118	301	131
0	18124	301	230
0	18130	301	130
0	18136	301	229
0	18142	301	129
0	18148	301	228
0	18154	301	128
0	18160	301	227
0	18166	301	127
0	18172	301	226
0	18178	301	126
0	18184	301	225
0	18190	301	125
0	18196	301	224
0	18202	301	124
0	18208	301	223
0	18214	301	123
0	18220	301	222
0	18226	301	122
0	18232	301	221
0	18238	301	121
0	18244	301	220
0	18250	301	120
0	18256	301	219
0	18262	301	119
0	18268	301	218
0	18274	301	118
0	18280	301	117
0	18286	301	116
0	18292	301	216
0	18298	301	215
0	18304	301	115
0	18310	301	214
0	18316	301	114
0	18322	301	213
0	18328	301	113
0	18334	301	212
0	18340	301	112
0	18346	301	211
0	18352	301	111
0	18358	301	110
0	18364	301	110
0	18370	301	10
0	18376	301	109
0	18382	301	109
0	18388	301	9
0	18394	301	108
0	18400	301	108
0	18406	301	8
0	18412	301	107
0	18418	301	107
0	18424	301	107
0	18430	301	7
0	18436	301	106
0	18442	301	6
0	18448	301	105
0	18454	301	5
0	18460	301	104
0	18466	301	4
0	18472	301	106
0	18478	301	105
0	18484	301	104
0	18490	301	210
0	18496	301	209
0	18502	301	208
0	18508	301	207
0	18514	301	206
0	18520	301	205
0	18526	301	204
0	18532	301	203
0	18538	301	103
0	18544	301	106
0	18550	301	105
0	18556	301	104
0	18562	301	210
0	18568	301	209
0	18574	301	208
0	18580	301	207
0	18586	301	206
0	18592	301	205
0	18598	301	204
0	18604	301	203
0	18610	301	103
0	18616	301	202
0	18622	301	102
0	18628	301	202
0	18634	301	102
0	18640	301	201
0	18646	301	201
0	18652	301	106
0	18658	301	105
0	18664	301	104
0	18670	301	210
0	18676	301	209
0	18682	301	208
0	18688	301	207
0	18694	301	206
0	18700	301	205
0	18706	301	204
0	18712	301	203
0	18718	301	103
0	18724	301	210
0	18730	301	209
0	18736	301	208
0	18742	301	207
0	18748	301	206
0	18754	301	205
0	18760	301	204
0	18766	301	203
0	18772	301	103
0	18778	301	3
0	18784	301	202
0	18790	301	102
0	18796	301	202
0	18802	301	102
0	18808	301	2
0	18814	301	201
0	18820	301	1
0	18838	302	1
0	18859	303	1
0	18882	304	1
0	18900	305	1
0	19792	320	15
0	19807	320	14
0	19821	320	13
0	19835	320	12
0	19845	320	11
0	19852	320	10
0	19858	320	9
0	19864	320	8
0	19870	320	7
0	19876	320	6
0	19882	320	5
0	19888	320	220
0	19894	320	120
0	19900	320	219
0	19906	320	119
0	19912	320	118
0	19918	320	117
0	19924	320	116
0	19930	320	115
0	19936	320	114
0	19942	320	113
0	19948	320	112
0	19954	320	218
0	19960	320	217
0	19966	320	216
0	19972	320	320
0	19978	320	319
0	19984	320	318
0	19990	320	317
0	19996	320	316
0	20002	320	315
0	20008	320	215
0	20014	320	314
0	20020	320	214
0	20026	320	313
0	20032	320	213
0	20038	320	312
0	20044	320	212
0	20050	320	311
0	20056	320	211
0	20062	320	111
0	20068	320	310
0	20074	320	210
0	20080	320	110
0	20086	320	209
0	20092	320	109
0	20098	320	208
0	20104	320	108
0	20110	320	107
0	20116	320	106
0	20122	320	105
0	20128	320	104
0	20134	320	4
0	20140	320	103
0	20146	320	3
0	20152	320	102
0	20158	320	2
0	20164	320	207
0	20170	320	206
0	20176	320	205
0	20182	320	309
0	20188	320	308
0	20194	320	307
0	20200	320	306
0	20206	320	305
0	20212	320	304
0	20218	320	204
0	20224	320	203
0	20230	320	202
0	20236	320	303
0	20242	320	302
0	20248	320	301
0	20254	320	201
0	20260	320	101
0	20266	320	1
0	20293	321	301
0	20308	321	201
0	20323	321	101
0	20337	321	1
0	20369	322	301
0	20384	322	201
0	20398	322	101
0	20412	322	1
0	20444	323	301
0	20459	323	201
0	20473	323	101
0	20483	323	1
0	20609	324	201
0	20620	324	101
0	20629	324	1
0	21098	325	224
0	21108	325	223
0	21115	325	222
0	21121	325	221
0	21127	325	325
0	21133	325	324
0	21139	325	323
0	21145	325	322
0	21151	325	321
0	21157	325	320
0	21163	325	220
0	21169	325	319
0	21175	325	219
0	21181	325	318
0	21187	325	218
0	21193	325	317
0	21199	325	217
0	21205	325	316
0	21211	325	216
0	21217	325	315
0	21223	325	215
0	21229	325	214
0	21235	325	213
0	21241	325	225
0	21247	325	125
0	21253	325	124
0	21259	325	123
0	21265	325	122
0	21271	325	121
0	21277	325	120
0	21283	325	119
0	21289	325	118
0	21295	325	117
0	21301	325	116
0	21307	325	115
0	21313	325	114
0	21319	325	113
0	21325	325	112
0	21331	325	111
0	21337	325	110
0	21343	325	109
0	21349	325	108
0	21355	325	107
0	21361	325	308
0	21367	325	307
0	21373	325	306
0	21379	325	212
0	21385	325	211
0	21391	325	210
0	21397	325	314
0	21403	325	313
0	21409	325	312
0	21415	325	311
0	21421	325	310
0	21427	325	309
0	21433	325	209
0	21439	325	208
0	21445	325	207
0	21451	325	206
0	21457	325	106
0	21463	325	305
0	21469	325	205
0	21475	325	105
0	21481	325	304
0	21487	325	204
0	21493	325	104
0	21499	325	303
0	21505	325	203
0	21511	325	103
0	21517	325	202
0	21523	325	102
0	21529	325	201
0	21535	325	101
0	21541	325	224
0	21547	325	223
0	21553	325	222
0	21559	325	221
0	21565	325	325
0	21571	325	324
0	21577	325	323
0	21583	325	322
0	21589	325	321
0	21595	325	320
0	21601	325	220
0	21607	325	319
0	21613	325	219
0	21619	325	318
0	21625	325	218
0	21631	325	317
0	21637	325	217
0	21643	325	316
0	21649	325	216
0	21655	325	315
0	21661	325	215
0	21667	325	214
0	21673	325	213
0	21679	325	225
0	21685	325	125
0	21691	325	224
0	21697	325	124
0	21703	325	123
0	21709	325	122
0	21715	325	121
0	21721	325	120
0	21727	325	119
0	21733	325	118
0	21739	325	117
0	21745	325	116
0	21751	325	115
0	21757	325	114
0	21763	325	113
0	21769	325	112
0	21775	325	111
0	21781	325	110
0	21787	325	109
0	21793	325	108
0	21799	325	107
0	21805	325	308
0	21811	325	307
0	21817	325	306
0	21823	325	212
0	21829	325	211
0	21835	325	210
0	21841	325	314
0	21847	325	313
0	21853	325	312
0	21859	325	311
0	21865	325	310
0	21871	325	309
0	21877	325	209
0	21883	325	208
0	21889	325	207
0	21895	325	206
0	21901	325	106
0	21907	325	305
0	21913	325	205
0	21919	325	105
0	21925	325	304
0	21931	325	204
0	21937	325	104
0	21943	325	303
0	21949	325	203
0	21955	325	103
0	21961	325	202
0	21967	325	102
0	21973	325	201
0	21979	325	101
0	21992	326	101
0	21999	326	101
0	22106	328	317
0	22114	328	316
0	22120	328	315
0	22126	328	314
0	22132	328	313
0	22138	328	312
0	22144	328	215
0	22150	328	214
0	22156	328	213
0	22162	328	212
0	22168	328	211
0	22174	328	210
0	22180	328	311
0	22186	328	310
0	22192	328	309
0	22198	328	209
0	22204	328	308
0	22210	328	208
0	22216	328	307
0	22222	328	207
0	22228	328	306
0	22234	328	206
0	22240	328	205
0	22246	328	204
0	22252	328	305
0	22258	328	304
0	22264	328	303
0	22270	328	302
0	22276	328	203
0	22282	328	202
0	22288	328	301
0	22294	328	201
0	22327	329	301
0	22337	329	201
0	22346	329	306
0	22355	329	305
0	22364	329	304
0	22373	329	204
0	22382	329	303
0	22391	329	203
0	22400	329	103
0	22409	329	302
0	22418	329	202
0	22427	329	102
0	22436	329	101
0	22618	330	301
0	22633	330	201
0	22648	330	101
0	22662	330	319
0	22676	330	318
0	22690	330	317
0	22704	330	316
0	22718	330	315
0	22732	330	314
0	22746	330	217
0	22760	330	216
0	22774	330	215
0	22788	330	214
0	22802	330	213
0	22816	330	212
0	22830	330	313
0	22844	330	312
0	22858	330	311
0	22872	330	211
0	22886	330	310
0	22900	330	210
0	22914	330	309
0	22928	330	209
0	22942	330	308
0	22956	330	208
0	22970	330	207
0	22984	330	206
0	22998	330	307
0	23008	330	306
0	23015	330	305
0	23021	330	304
0	23027	330	205
0	23033	330	204
0	23039	330	303
0	23045	330	203
0	23051	330	302
0	23057	330	202
0	23063	330	104
0	23069	330	103
0	23075	330	102
0	23081	330	301
0	23087	330	201
0	23093	330	101
0	23159	331	101
0	23171	331	101
0	23209	333	232
0	23220	333	1
0	23227	333	231
0	23239	333	230
0	23246	333	229
0	23252	333	333
0	23258	333	332
0	23264	333	331
0	23270	333	330
0	23276	333	329
0	23282	333	328
0	23288	333	228
0	23294	333	327
0	23300	333	227
0	23306	333	326
0	23312	333	226
0	23318	333	325
0	23324	333	225
0	23330	333	324
0	23336	333	224
0	23342	333	323
0	23348	333	223
0	23354	333	222
0	23360	333	221
0	23366	333	316
0	23372	333	315
0	23378	333	314
0	23384	333	322
0	23390	333	321
0	23396	333	320
0	23402	333	319
0	23408	333	318
0	23414	333	317
0	23420	333	220
0	23426	333	219
0	23432	333	218
0	23438	333	217
0	23444	333	216
0	23450	333	215
0	23456	333	214
0	23462	333	313
0	23468	333	213
0	23474	333	312
0	23480	333	212
0	23486	333	311
0	23492	333	211
0	23498	333	210
0	23504	333	209
0	23510	333	310
0	23516	333	309
0	23522	333	308
0	23528	333	307
0	23534	333	208
0	23540	333	207
0	23546	333	306
0	23552	333	206
0	23558	333	305
0	23564	333	205
0	23570	333	304
0	23576	333	204
0	23582	333	303
0	23588	333	203
0	23594	333	302
0	23600	333	202
0	23606	333	301
0	23612	333	201
0	23618	333	200
0	23624	333	199
0	23630	333	198
0	23636	333	197
0	23642	333	196
0	23648	333	300
0	23654	333	299
0	23660	333	298
0	23666	333	297
0	23672	333	296
0	23678	333	295
0	23684	333	195
0	23690	333	294
0	23696	333	194
0	23702	333	293
0	23708	333	193
0	23714	333	292
0	23720	333	192
0	23726	333	291
0	23732	333	191
0	23738	333	290
0	23744	333	190
0	23750	333	289
0	23756	333	189
0	23762	333	288
0	23768	333	188
0	23774	333	287
0	23780	333	187
0	23786	333	286
0	23792	333	186
0	23798	333	285
0	23804	333	185
0	23810	333	284
0	23816	333	283
0	23822	333	282
0	23828	333	281
0	23834	333	280
0	23840	333	279
0	23846	333	278
0	23852	333	277
0	23858	333	276
0	23864	333	184
0	23870	333	183
0	23876	333	182
0	23882	333	181
0	23888	333	180
0	23894	333	179
0	23900	333	178
0	23906	333	177
0	23912	333	176
0	23918	333	175
0	23924	333	174
0	23930	333	275
0	23936	333	274
0	23942	333	273
0	23948	333	173
0	23954	333	272
0	23960	333	172
0	23966	333	271
0	23972	333	171
0	23978	333	270
0	23984	333	170
0	23990	333	269
0	23996	333	268
0	24002	333	267
0	24008	333	266
0	24014	333	265
0	24020	333	264
0	24026	333	263
0	24032	333	262
0	24038	333	261
0	24044	333	260
0	24050	333	259
0	24056	333	258
0	24062	333	257
0	24068	333	256
0	24074	333	255
0	24080	333	254
0	24086	333	253
0	24092	333	252
0	24098	333	251
0	24104	333	250
0	24110	333	249
0	24116	333	169
0	24122	333	168
0	24128	333	167
0	24134	333	166
0	24140	333	165
0	24146	333	164
0	24152	333	163
0	24158	333	162
0	24164	333	161
0	24170	333	160
0	24176	333	159
0	24182	333	158
0	24188	333	157
0	24194	333	156
0	24200	333	155
0	24206	333	154
0	24212	333	153
0	24218	333	152
0	24224	333	151
0	24230	333	150
0	24236	333	149
0	24242	333	148
0	24248	333	248
0	24254	333	247
0	24260	333	147
0	24266	333	246
0	24272	333	146
0	24278	333	245
0	24284	333	145
0	24290	333	244
0	24296	333	144
0	24302	333	243
0	24308	333	143
0	24314	333	142
0	24320	333	141
0	24326	333	140
0	24332	333	139
0	24338	333	242
0	24344	333	241
0	24350	333	240
0	24356	333	239
0	24362	333	238
0	24368	333	237
0	24374	333	236
0	24380	333	235
0	24386	333	234
0	24392	333	233
0	24398	333	209
0	24404	333	109
0	24410	333	9
0	24416	333	108
0	24422	333	8
0	24428	333	7
0	24434	333	6
0	24440	333	310
0	24446	333	309
0	24452	333	308
0	24458	333	208
0	24464	333	307
0	24470	333	207
0	24476	333	107
0	24482	333	306
0	24488	333	206
0	24494	333	106
0	24500	333	305
0	24506	333	205
0	24512	333	105
0	24518	333	5
0	24524	333	304
0	24530	333	204
0	24536	333	104
0	24542	333	4
0	24548	333	103
0	24554	333	3
0	24560	333	2
0	24579	334	1
0	24599	335	1
0	24666	339	4
0	24672	339	3
0	24678	339	2
0	24684	339	1
0	24779	344	5
0	24786	344	4
0	24792	344	3
0	24798	344	2
0	24804	344	1
0	24859	346	2
0	24873	346	1
0	25025	347	327
0	25039	347	326
0	25047	347	1
0	25053	347	325
0	25059	347	319
0	25065	347	318
0	25071	347	317
0	25077	347	316
0	25083	347	315
0	25089	347	305
0	25095	347	205
0	25101	347	304
0	25107	347	204
0	25113	347	303
0	25119	347	203
0	25125	347	302
0	25131	347	202
0	25137	347	314
0	25143	347	313
0	25149	347	312
0	25155	347	311
0	25161	347	310
0	25167	347	309
0	25173	347	308
0	25179	347	307
0	25185	347	306
0	25191	347	301
0	25197	347	201
0	25234	348	301
0	25246	348	201
0	25253	348	1
0	25291	349	301
0	25302	349	201
0	25337	350	2
0	25345	350	1
0	25364	351	1
0	25476	357	6
0	25488	357	5
0	25499	357	4
0	25510	357	3
0	25521	357	2
0	25528	357	1
0	25563	358	1
0	25626	359	1
0	25768	360	311
0	25783	360	211
0	25797	360	1
0	25809	360	210
0	25820	360	310
0	25831	360	309
0	25842	360	209
0	25853	360	308
0	25864	360	208
0	25875	360	307
0	25886	360	207
0	25897	360	306
0	25908	360	206
0	25919	360	305
0	25930	360	205
0	25941	360	304
0	25952	360	204
0	25963	360	303
0	25974	360	203
0	25985	360	202
0	25992	360	201
0	26048	361	303
0	26061	361	302
0	26072	361	1
0	26083	361	301
0	26090	361	201
0	26141	362	301
0	26154	362	201
0	26161	362	1
0	26212	363	301
0	26225	363	201
0	26233	363	1
0	26266	364	1
0	26288	365	1
0	26317	366	1
0	26357	367	1
0	26401	368	1
0	26467	369	311
0	26480	369	306
0	26492	369	1
0	26503	369	310
0	26515	369	206
0	26526	369	309
0	26538	369	308
0	26545	369	307
0	26627	370	1
0	26890	371	341
0	26901	371	241
0	26908	371	340
0	26914	371	240
0	26920	371	339
0	26926	371	239
0	26932	371	238
0	26938	371	237
0	26944	371	236
0	26950	371	235
0	26956	371	234
0	26962	371	338
0	26968	371	337
0	26974	371	336
0	26980	371	335
0	26986	371	334
0	26992	371	333
0	26998	371	233
0	27004	371	332
0	27010	371	232
0	27016	371	331
0	27022	371	231
0	27028	371	330
0	27034	371	230
0	27040	371	329
0	27046	371	229
0	27052	371	328
0	27058	371	228
0	27064	371	327
0	27070	371	227
0	27076	371	326
0	27082	371	226
0	27088	371	324
0	27094	371	323
0	27100	371	322
0	27106	371	321
0	27112	371	320
0	27118	371	319
0	27124	371	318
0	27130	371	317
0	27136	371	316
0	27142	371	315
0	27148	371	314
0	27154	371	313
0	27160	371	312
0	27166	371	311
0	27172	371	310
0	27178	371	309
0	27184	371	308
0	27190	371	1
0	27202	372	1
0	28577	374	2
0	28592	374	143
0	28602	374	142
0	28609	374	141
0	28615	374	140
0	28621	374	344
0	28627	374	244
0	28633	374	343
0	28639	374	243
0	28645	374	342
0	28651	374	242
0	28657	374	241
0	28663	374	240
0	28669	374	239
0	28675	374	139
0	28681	374	238
0	28687	374	138
0	28693	374	237
0	28699	374	137
0	28705	374	341
0	28711	374	340
0	28717	374	339
0	28723	374	338
0	28729	374	337
0	28735	374	336
0	28741	374	236
0	28747	374	136
0	28753	374	335
0	28759	374	235
0	28765	374	135
0	28771	374	334
0	28777	374	234
0	28783	374	134
0	28789	374	333
0	28795	374	233
0	28801	374	133
0	28807	374	132
0	28813	374	332
0	28819	374	232
0	28825	374	331
0	28831	374	231
0	28837	374	131
0	28843	374	330
0	28849	374	230
0	28855	374	130
0	28861	374	329
0	28867	374	229
0	28873	374	129
0	28879	374	328
0	28885	374	228
0	28891	374	128
0	28897	374	327
0	28903	374	227
0	28909	374	127
0	28915	374	326
0	28921	374	226
0	28927	374	126
0	28933	374	125
0	28939	374	124
0	28945	374	123
0	28951	374	122
0	28957	374	121
0	28963	374	120
0	28969	374	119
0	28975	374	118
0	28981	374	325
0	28987	374	225
0	28993	374	224
0	28999	374	324
0	29005	374	323
0	29011	374	223
0	29017	374	322
0	29023	374	222
0	29029	374	321
0	29035	374	221
0	29041	374	320
0	29047	374	220
0	29053	374	319
0	29059	374	219
0	29065	374	318
0	29071	374	218
0	29077	374	317
0	29083	374	217
0	29089	374	117
0	29095	374	216
0	29101	374	116
0	29107	374	215
0	29113	374	115
0	29119	374	316
0	29125	374	315
0	29131	374	314
0	29137	374	214
0	29143	374	114
0	29149	374	313
0	29155	374	213
0	29161	374	113
0	29167	374	312
0	29173	374	212
0	29179	374	112
0	29185	374	311
0	29191	374	211
0	29197	374	111
0	29203	374	110
0	29209	374	109
0	29215	374	108
0	29221	374	107
0	29227	374	106
0	29233	374	105
0	29239	374	104
0	29245	374	103
0	29251	374	102
0	29257	374	101
0	29263	374	1
0	29289	375	101
0	29304	375	1
0	29874	376	145
0	29885	376	144
0	29892	376	143
0	29898	376	142
0	29904	376	346
0	29910	376	246
0	29916	376	345
0	29922	376	245
0	29928	376	344
0	29934	376	244
0	29940	376	243
0	29946	376	242
0	29952	376	241
0	29958	376	141
0	29964	376	240
0	29970	376	140
0	29976	376	239
0	29982	376	139
0	29988	376	343
0	29994	376	342
0	30000	376	341
0	30006	376	340
0	30012	376	339
0	30018	376	338
0	30024	376	238
0	30030	376	138
0	30036	376	337
0	30042	376	237
0	30048	376	137
0	30054	376	336
0	30060	376	236
0	30066	376	136
0	30072	376	335
0	30078	376	235
0	30084	376	135
0	30090	376	134
0	30096	376	334
0	30102	376	234
0	30108	376	333
0	30114	376	233
0	30120	376	133
0	30126	376	332
0	30132	376	232
0	30138	376	132
0	30144	376	331
0	30150	376	231
0	30156	376	131
0	30162	376	330
0	30168	376	230
0	30174	376	130
0	30180	376	329
0	30186	376	229
0	30192	376	129
0	30198	376	328
0	30204	376	228
0	30210	376	128
0	30216	376	127
0	30222	376	126
0	30228	376	125
0	30234	376	124
0	30240	376	123
0	30246	376	122
0	30252	376	121
0	30258	376	120
0	30264	376	327
0	30270	376	227
0	30276	376	226
0	30282	376	326
0	30288	376	325
0	30294	376	225
0	30300	376	324
0	30306	376	224
0	30312	376	323
0	30318	376	223
0	30324	376	322
0	30330	376	222
0	30336	376	321
0	30342	376	221
0	30348	376	320
0	30354	376	220
0	30360	376	319
0	30366	376	219
0	30372	376	119
0	30378	376	218
0	30384	376	118
0	30390	376	217
0	30396	376	117
0	30402	376	318
0	30408	376	317
0	30414	376	316
0	30420	376	216
0	30426	376	116
0	30432	376	315
0	30438	376	215
0	30444	376	115
0	30450	376	314
0	30456	376	214
0	30462	376	114
0	30468	376	313
0	30474	376	213
0	30480	376	113
0	30486	376	112
0	30492	376	111
0	30498	376	110
0	30504	376	109
0	30510	376	108
0	30516	376	107
0	30522	376	106
0	30528	376	105
0	30534	376	104
0	30540	376	103
0	30619	379	104
0	30629	379	4
0	30636	379	103
0	30642	379	3
0	30648	379	2
0	30654	379	1
0	30674	380	1
0	30694	381	1
0	30775	386	5
0	30785	386	4
0	30792	386	3
0	30798	386	2
0	30804	386	1
0	30965	387	1
0	32058	391	117
0	32069	391	116
0	32080	391	115
0	32087	391	327
0	32093	391	326
0	32099	391	325
0	32105	391	324
0	32111	391	323
0	32117	391	322
0	32123	391	321
0	32129	391	320
0	32135	391	319
0	32141	391	318
0	32147	391	317
0	32153	391	316
0	32159	391	315
0	32165	391	314
0	32171	391	313
0	32177	391	312
0	32183	391	311
0	32189	391	310
0	32195	391	309
0	32201	391	308
0	32207	391	306
0	32213	391	305
0	32219	391	304
0	32225	391	114
0	32231	391	113
0	32237	391	112
0	32243	391	111
0	32249	391	110
0	32255	391	109
0	32261	391	108
0	32267	391	107
0	32273	391	227
0	32279	391	226
0	32285	391	225
0	32291	391	224
0	32297	391	223
0	32303	391	222
0	32309	391	221
0	32315	391	220
0	32321	391	219
0	32327	391	218
0	32333	391	217
0	32339	391	216
0	32345	391	215
0	32351	391	214
0	32357	391	213
0	32363	391	212
0	32369	391	211
0	32375	391	210
0	32381	391	209
0	32387	391	208
0	32393	391	307
0	32399	391	207
0	32405	391	206
0	32411	391	106
0	32417	391	205
0	32423	391	105
0	32429	391	204
0	32435	391	104
0	32441	391	114
0	32447	391	113
0	32453	391	112
0	32459	391	111
0	32465	391	110
0	32471	391	109
0	32477	391	108
0	32483	391	107
0	32489	391	227
0	32495	391	226
0	32501	391	225
0	32507	391	224
0	32513	391	223
0	32519	391	327
0	32525	391	326
0	32531	391	325
0	32537	391	324
0	32543	391	323
0	32549	391	322
0	32555	391	222
0	32561	391	321
0	32567	391	221
0	32573	391	320
0	32579	391	220
0	32585	391	319
0	32591	391	219
0	32597	391	318
0	32603	391	218
0	32609	391	317
0	32615	391	217
0	32621	391	316
0	32627	391	216
0	32633	391	315
0	32639	391	215
0	32645	391	314
0	32651	391	214
0	32657	391	313
0	32663	391	213
0	32669	391	312
0	32675	391	212
0	32681	391	311
0	32687	391	211
0	32693	391	310
0	32699	391	210
0	32705	391	309
0	32711	391	209
0	32717	391	308
0	32723	391	208
0	32729	391	307
0	32735	391	207
0	32741	391	206
0	32747	391	106
0	32753	391	306
0	32759	391	305
0	32765	391	205
0	32771	391	105
0	32777	391	304
0	32783	391	204
0	32789	391	104
0	32795	391	4
0	32801	391	303
0	32807	391	203
0	32813	391	103
0	32819	391	303
0	32825	391	203
0	32831	391	103
0	32837	391	3
0	32843	391	102
0	32849	391	102
0	32855	391	2
0	32861	391	302
0	32867	391	202
0	32873	391	301
0	32879	391	201
0	32885	391	101
0	33010	394	305
0	33019	394	304
0	33407	395	306
0	33428	395	206
0	33447	395	305
0	33468	395	205
0	33487	395	105
0	33508	395	5
0	33527	395	204
0	33548	395	104
0	33567	395	4
0	33584	395	203
0	33594	395	103
0	33601	395	3
0	33607	395	311
0	33613	395	231
0	33619	395	230
0	33625	395	229
0	33631	395	228
0	33637	395	227
0	33643	395	331
0	33649	395	330
0	33655	395	329
0	33661	395	328
0	33667	395	327
0	33673	395	326
0	33679	395	226
0	33685	395	325
0	33691	395	225
0	33697	395	324
0	33703	395	224
0	33709	395	323
0	33715	395	223
0	33721	395	322
0	33727	395	222
0	33733	395	321
0	33739	395	221
0	33745	395	320
0	33751	395	220
0	33757	395	319
0	33763	395	219
0	33769	395	318
0	33775	395	218
0	33781	395	317
0	33787	395	217
0	33793	395	316
0	33799	395	216
0	33805	395	315
0	33811	395	215
0	33817	395	314
0	33823	395	214
0	33829	395	313
0	33835	395	213
0	33841	395	312
0	33847	395	212
0	33853	395	211
0	33859	395	210
0	33865	395	310
0	33871	395	309
0	33877	395	209
0	33883	395	308
0	33889	395	208
0	33895	395	307
0	33901	395	207
0	33907	395	306
0	33913	395	206
0	33919	395	305
0	33925	395	205
0	33931	395	204
0	33937	395	104
0	33943	395	203
0	33949	395	103
0	33955	395	202
0	33961	395	102
0	33967	395	201
0	33973	395	101
0	34018	396	201
0	34038	396	101
0	34057	396	203
0	34073	396	103
0	34083	396	3
0	34090	396	202
0	34096	396	102
0	34102	396	2
0	34108	396	201
0	34114	396	101
0	34120	396	1
0	34152	397	201
0	34172	397	101
0	34191	397	201
0	34207	397	101
0	34217	397	1
0	34274	398	201
0	34288	398	101
0	34303	398	201
0	34317	398	101
0	34332	398	1
0	34489	399	204
0	34498	399	203
0	34505	399	202
0	34511	399	308
0	34517	399	307
0	34523	399	306
0	34529	399	305
0	34535	399	304
0	34541	399	303
0	34547	399	302
0	34553	399	301
0	34559	399	201
0	34565	399	308
0	34571	399	307
0	34577	399	306
0	34583	399	305
0	34589	399	304
0	34595	399	303
0	34601	399	302
0	34607	399	301
0	34613	399	201
0	34619	399	101
0	34625	399	1
0	34678	400	301
0	34688	400	201
0	35309	401	381
0	35318	401	380
0	35325	401	379
0	35331	401	373
0	35337	401	372
0	35343	401	371
0	35349	401	370
0	35355	401	369
0	35361	401	401
0	35367	401	390
0	35373	401	400
0	35379	401	389
0	35385	401	399
0	35391	401	388
0	35397	401	398
0	35403	401	387
0	35409	401	397
0	35415	401	386
0	35421	401	396
0	35427	401	385
0	35433	401	395
0	35439	401	394
0	35445	401	393
0	35451	401	392
0	35457	401	391
0	35463	401	384
0	35469	401	383
0	35475	401	382
0	35481	401	378
0	35487	401	377
0	35493	401	376
0	35499	401	375
0	35505	401	374
0	35511	401	359
0	35517	401	259
0	35523	401	358
0	35529	401	258
0	35535	401	357
0	35541	401	257
0	35547	401	356
0	35553	401	256
0	35559	401	368
0	35565	401	367
0	35571	401	366
0	35577	401	365
0	35583	401	364
0	35589	401	363
0	35595	401	362
0	35601	401	361
0	35607	401	360
0	35613	401	355
0	35619	401	255
0	35625	401	354
0	35631	401	254
0	35637	401	353
0	35643	401	253
0	35649	401	352
0	35655	401	351
0	35661	401	350
0	35667	401	252
0	35673	401	251
0	35679	401	250
0	35685	401	349
0	35691	401	249
0	35697	401	348
0	35703	401	248
0	35709	401	347
0	35715	401	247
0	35721	401	346
0	35727	401	246
0	35733	401	345
0	35739	401	245
0	35745	401	344
0	35751	401	244
0	35757	401	243
0	35763	401	242
0	35769	401	343
0	35775	401	342
0	35781	401	341
0	35787	401	241
0	35793	401	340
0	35799	401	240
0	35805	401	339
0	35811	401	239
0	35817	401	338
0	35823	401	238
0	35829	401	271
0	35835	401	270
0	35841	401	269
0	35847	401	268
0	35853	401	267
0	35859	401	266
0	35865	401	265
0	35871	401	264
0	35877	401	263
0	35883	401	262
0	35889	401	261
0	35895	401	260
0	35901	401	170
0	35907	401	169
0	35913	401	168
0	35919	401	167
0	35925	401	166
0	35931	401	165
0	35937	401	164
0	35943	401	163
0	35949	401	162
0	35955	401	161
0	35961	401	160
0	35967	401	159
0	35973	401	158
0	35979	401	157
0	35985	401	156
0	35991	401	155
0	35997	401	154
0	36003	401	153
0	36009	401	152
0	36015	401	151
0	36021	401	150
0	36027	401	149
0	36033	401	148
0	36039	401	147
0	36045	401	146
0	36051	401	145
0	36057	401	144
0	36063	401	143
0	36069	401	142
0	36075	401	141
0	36081	401	140
0	36087	401	139
0	36093	401	138
0	36099	401	137
0	36105	401	136
0	36111	401	135
0	36117	401	134
0	36123	401	133
0	36129	401	132
0	36135	401	131
0	36141	401	130
0	36147	401	129
0	36153	401	128
0	36159	401	318
0	36165	401	317
0	36171	401	316
0	36177	401	315
0	36183	401	127
0	36189	401	126
0	36195	401	125
0	36201	401	337
0	36207	401	336
0	36213	401	335
0	36219	401	334
0	36225	401	333
0	36231	401	332
0	36237	401	331
0	36243	401	330
0	36249	401	329
0	36255	401	328
0	36261	401	327
0	36267	401	326
0	36273	401	325
0	36279	401	324
0	36285	401	323
0	36291	401	322
0	36297	401	321
0	36303	401	320
0	36309	401	319
0	36315	401	314
0	36321	401	124
0	36327	401	123
0	36333	401	122
0	36339	401	121
0	36345	401	120
0	36351	401	119
0	36357	401	118
0	36363	401	117
0	36369	401	237
0	36375	401	236
0	36381	401	235
0	36387	401	234
0	36393	401	233
0	36399	401	232
0	36405	401	231
0	36411	401	230
0	36417	401	229
0	36423	401	228
0	36429	401	227
0	36435	401	226
0	36441	401	225
0	36447	401	224
0	36453	401	223
0	36459	401	222
0	36465	401	221
0	36471	401	220
0	36477	401	219
0	36483	401	218
0	36489	401	217
0	36495	401	216
0	36501	401	116
0	36507	401	215
0	36513	401	115
0	36519	401	214
0	36525	401	114
0	36531	401	313
0	36537	401	213
0	36543	401	113
0	36549	401	112
0	36555	401	312
0	36561	401	212
0	36567	401	311
0	36573	401	211
0	36579	401	111
0	36585	401	210
0	36591	401	209
0	36597	401	208
0	36603	401	110
0	36609	401	109
0	36615	401	108
0	36621	401	207
0	36627	401	107
0	36633	401	206
0	36639	401	106
0	36645	401	205
0	36651	401	105
0	36657	401	204
0	36663	401	104
0	36669	401	310
0	36675	401	309
0	36681	401	308
0	36687	401	307
0	36693	401	306
0	36699	401	305
0	36705	401	304
0	36711	401	303
0	36717	401	203
0	36723	401	302
0	36729	401	202
0	36735	401	301
0	36741	401	103
0	36747	401	102
0	36753	401	101
0	36759	401	301
0	36775	402	101
0	36790	403	101
0	36803	404	101
0	36884	405	101
0	37127	413	1
0	37148	414	1
0	52564	525	330
0	52570	525	329
0	52576	525	328
0	52582	525	434
0	52588	525	433
0	52594	525	432
0	52600	525	431
0	52606	525	430
0	52612	525	429
0	52618	525	428
0	52624	525	427
0	52630	525	327
0	52636	525	227
0	52642	525	426
0	52648	525	326
0	52654	525	226
0	52660	525	425
0	52666	525	225
0	52672	525	224
0	52678	525	223
0	52684	525	222
0	52690	525	221
0	52696	525	426
0	52702	525	326
0	52708	525	226
0	52714	525	126
0	52720	525	225
0	52726	525	125
0	52732	525	224
0	52738	525	124
0	52744	525	223
0	52750	525	123
0	52756	525	222
0	52762	525	122
0	52768	525	221
0	52774	525	121
0	52780	525	120
0	52786	525	119
0	52792	525	118
0	52798	525	117
0	52804	525	116
0	52810	525	115
0	52816	525	114
0	52822	525	220
0	52828	525	219
0	52834	525	218
0	52840	525	217
0	52846	525	216
0	52852	525	215
0	52858	525	214
0	52864	525	213
0	52870	525	212
0	52876	525	211
0	52882	525	210
0	52888	525	425
0	52894	525	325
0	52900	525	424
0	52906	525	324
0	52912	525	323
0	52918	525	322
0	52924	525	321
0	52930	525	320
0	52936	525	319
0	52942	525	318
0	52948	525	317
0	52954	525	423
0	52960	525	422
0	52966	525	421
0	52972	525	525
0	52978	525	524
0	52984	525	523
0	52990	525	522
0	52996	525	521
0	53002	525	520
0	53008	525	420
0	53014	525	519
0	53020	525	419
0	53026	525	518
0	53032	525	418
0	53038	525	517
0	53044	525	417
0	53050	525	516
0	53056	525	416
0	53062	525	316
0	53068	525	515
0	53074	525	415
0	53080	525	315
0	53086	525	414
0	53092	525	314
0	53098	525	413
0	53104	525	313
0	53110	525	312
0	53116	525	311
0	53122	525	310
0	53128	525	309
0	53134	525	209
0	53140	525	308
0	53146	525	208
0	53152	525	307
0	53158	525	207
0	53164	525	412
0	53170	525	411
0	53176	525	410
0	53182	525	514
0	53188	525	513
0	53194	525	512
0	53200	525	511
0	53206	525	510
0	53212	525	509
0	53218	525	409
0	53224	525	408
0	53230	525	407
0	53236	525	508
0	53242	525	507
0	53248	525	506
0	53254	525	406
0	53260	525	306
0	53266	525	206
0	53272	525	505
0	53278	525	405
0	53284	525	305
0	53290	525	205
0	53296	525	504
0	53302	525	404
0	53308	525	304
0	53314	525	204
0	53320	525	503
0	53326	525	403
0	53332	525	303
0	53338	525	203
0	53344	525	402
0	53350	525	302
0	53356	525	202
0	53362	525	423
0	53368	525	422
0	53374	525	421
0	53380	525	525
0	53386	525	524
0	53392	525	523
0	53398	525	522
0	53404	525	521
0	53410	525	520
0	53416	525	420
0	53422	525	519
0	53428	525	419
0	53434	525	518
0	53440	525	418
0	53446	525	517
0	53452	525	417
0	53458	525	516
0	53464	525	416
0	53470	525	515
0	53476	525	415
0	53482	525	414
0	53488	525	413
0	53494	525	425
0	53500	525	325
0	53506	525	424
0	53512	525	324
0	53518	525	323
0	53524	525	322
0	53530	525	321
0	53536	525	320
0	53542	525	319
0	53548	525	318
0	53554	525	317
0	53560	525	316
0	53566	525	315
0	53572	525	314
0	53578	525	313
0	53584	525	312
0	53590	525	311
0	53596	525	310
0	53602	525	309
0	53608	525	308
0	53614	525	307
0	53620	525	508
0	53626	525	507
0	53632	525	506
0	53638	525	412
0	53644	525	411
0	53650	525	410
0	53656	525	514
0	53662	525	513
0	53668	525	512
0	53674	525	511
0	53680	525	510
0	53686	525	509
0	53692	525	409
0	53698	525	408
0	53704	525	407
0	53710	525	406
0	53716	525	306
0	53722	525	505
0	53728	525	405
0	53734	525	305
0	53740	525	504
0	53746	525	404
0	53752	525	304
0	53758	525	503
0	53764	525	403
0	53770	525	303
0	53776	525	402
0	53782	525	302
0	53788	525	401
0	53794	525	301
0	53800	525	300
0	53806	525	424
0	53812	525	423
0	53818	525	422
0	53824	525	421
0	53830	525	525
0	53836	525	524
0	53842	525	523
0	53848	525	522
0	53854	525	521
0	53860	525	520
0	53866	525	420
0	53872	525	519
0	53878	525	419
0	53884	525	518
0	53890	525	418
0	53896	525	517
0	53902	525	417
0	53908	525	516
0	53914	525	416
0	53920	525	515
0	53926	525	415
0	53932	525	414
0	53938	525	413
0	53944	525	508
0	53950	525	507
0	53956	525	506
0	53962	525	514
0	53968	525	513
0	53974	525	512
0	53980	525	511
0	53986	525	510
0	53992	525	509
0	53998	525	412
0	54004	525	411
0	54010	525	410
0	54016	525	409
0	54022	525	408
0	54028	525	407
0	54034	525	406
0	54040	525	505
0	54046	525	405
0	54052	525	504
0	54058	525	404
0	54064	525	503
0	54070	525	403
0	54076	525	402
0	54082	525	401
0	54088	525	502
0	54094	525	501
0	54100	525	500
0	54106	525	499
0	54112	525	400
0	54118	525	399
0	54124	525	498
0	54130	525	398
0	54136	525	497
0	54142	525	397
0	54148	525	496
0	54154	525	396
0	54160	525	495
0	54166	525	395
0	54172	525	494
0	54178	525	394
0	54184	525	493
0	54190	525	393
0	54196	525	392
0	54202	525	391
0	54208	525	390
0	54214	525	389
0	54220	525	388
0	54226	525	492
0	54232	525	491
0	54238	525	490
0	54244	525	489
0	54250	525	488
0	54256	525	487
0	54262	525	387
0	54268	525	486
0	54274	525	386
0	54280	525	485
0	54286	525	385
0	54292	525	484
0	54298	525	384
0	54304	525	483
0	54310	525	383
0	54316	525	482
0	54322	525	382
0	54328	525	481
0	54334	525	381
0	54340	525	480
0	54346	525	380
0	54352	525	479
0	54358	525	379
0	54364	525	478
0	54370	525	378
0	54376	525	477
0	54382	525	377
0	54388	525	476
0	54394	525	475
0	54400	525	474
0	54406	525	473
0	54412	525	472
0	54418	525	471
0	54424	525	470
0	54430	525	469
0	54436	525	468
0	54442	525	376
0	54448	525	375
0	54454	525	374
0	54460	525	373
0	54466	525	372
0	54472	525	371
0	54478	525	370
0	54484	525	369
0	54490	525	368
0	54496	525	367
0	54502	525	366
0	54508	525	467
0	54514	525	466
0	54520	525	465
0	54526	525	365
0	54532	525	464
0	54538	525	364
0	54544	525	463
0	54550	525	363
0	54556	525	462
0	54562	525	362
0	54568	525	461
0	54574	525	460
0	54580	525	459
0	54586	525	458
0	54592	525	457
0	54598	525	456
0	54604	525	455
0	54610	525	454
0	54616	525	453
0	54622	525	452
0	54628	525	451
0	54634	525	450
0	54640	525	449
0	54646	525	448
0	54652	525	447
0	54658	525	446
0	54664	525	445
0	54670	525	444
0	54676	525	443
0	54682	525	442
0	54688	525	441
0	54694	525	361
0	54700	525	360
0	54706	525	359
0	54712	525	358
0	54718	525	357
0	54724	525	356
0	54730	525	355
0	54736	525	354
0	54742	525	353
0	54748	525	352
0	54754	525	351
0	54760	525	350
0	54766	525	349
0	54772	525	348
0	54778	525	347
0	54784	525	346
0	54790	525	345
0	54796	525	344
0	54802	525	343
0	54808	525	342
0	54814	525	341
0	54820	525	340
0	54826	525	440
0	54832	525	439
0	54838	525	339
0	54844	525	438
0	54850	525	338
0	54856	525	437
0	54862	525	337
0	54868	525	436
0	54874	525	336
0	54880	525	435
0	54886	525	335
0	54892	525	334
0	54898	525	333
0	54904	525	332
0	54910	525	331
0	54916	525	434
0	54922	525	433
0	54928	525	432
0	54934	525	431
0	54940	525	430
0	54946	525	429
0	54952	525	428
0	54958	525	427
0	54964	525	426
0	54970	525	425
0	54976	525	301
0	54982	525	201
0	54988	525	300
0	54994	525	200
0	55000	525	199
0	55006	525	198
0	55012	525	299
0	55018	525	298
0	55024	525	297
0	55030	525	197
0	55036	525	296
0	55042	525	196
0	55048	525	295
0	55054	525	195
0	55060	525	194
0	55066	525	186
0	55072	525	185
0	55078	525	184
0	55084	525	183
0	55090	525	182
0	55096	525	178
0	55102	525	401
0	55108	525	301
0	55114	525	201
0	55120	525	300
0	55126	525	200
0	55132	525	199
0	55138	525	198
0	55144	525	502
0	55150	525	501
0	55156	525	500
0	55162	525	400
0	55168	525	499
0	55174	525	399
0	55180	525	299
0	55186	525	498
0	55192	525	398
0	55198	525	298
0	55204	525	497
0	55210	525	397
0	55216	525	297
0	55222	525	197
0	55228	525	496
0	55234	525	396
0	55240	525	296
0	55246	525	196
0	55252	525	295
0	55258	525	195
0	55264	525	194
0	55270	525	193
0	55276	525	192
0	55282	525	191
0	55288	525	190
0	55294	525	189
0	55300	525	188
0	55306	525	187
0	55312	525	505
0	55318	525	504
0	55324	525	503
0	55330	525	495
0	55336	525	494
0	55342	525	493
0	55348	525	483
0	55354	525	383
0	55360	525	482
0	55366	525	382
0	55372	525	481
0	55378	525	381
0	55384	525	480
0	55390	525	380
0	55396	525	492
0	55402	525	491
0	55408	525	490
0	55414	525	489
0	55420	525	488
0	55426	525	487
0	55432	525	486
0	55438	525	485
0	55444	525	484
0	55450	525	479
0	55456	525	379
0	55462	525	478
0	55468	525	378
0	55474	525	477
0	55480	525	377
0	55486	525	177
0	55492	525	176
0	55498	525	177
0	55504	525	176
0	55510	525	175
0	55516	525	175
0	55522	525	424
0	55528	525	514
0	55534	525	513
0	55540	525	512
0	55546	525	511
0	55552	525	510
0	55558	525	509
0	55564	525	412
0	55570	525	411
0	55576	525	410
0	55582	525	409
0	55588	525	408
0	55594	525	407
0	55600	525	508
0	55606	525	507
0	55612	525	506
0	55618	525	406
0	55624	525	505
0	55630	525	405
0	55636	525	504
0	55642	525	404
0	55648	525	503
0	55654	525	403
0	55660	525	402
0	55666	525	401
0	55672	525	502
0	55678	525	501
0	55684	525	500
0	55690	525	499
0	55696	525	400
0	55702	525	399
0	55708	525	498
0	55714	525	398
0	55720	525	497
0	55726	525	397
0	55732	525	299
0	55738	525	298
0	55744	525	297
0	55750	525	496
0	55756	525	396
0	55762	525	296
0	55768	525	295
0	55774	525	186
0	55780	525	185
0	55786	525	184
0	55792	525	183
0	55798	525	182
0	55804	525	181
0	55810	525	180
0	55816	525	179
0	55822	525	178
0	55828	525	174
0	55834	525	173
0	55840	525	172
0	55846	525	171
0	55852	525	170
0	55858	525	169
0	55864	525	174
0	55870	525	173
0	55876	525	172
0	55882	525	171
0	55888	525	170
0	55894	525	169
0	55900	525	168
0	55906	525	168
0	55912	525	167
0	55918	525	167
0	55924	525	166
0	55930	525	166
0	55936	525	165
0	55942	525	164
0	55948	525	163
0	55954	525	162
0	55960	525	161
0	55966	525	160
0	55972	525	159
0	55978	525	158
0	55984	525	165
0	55990	525	164
0	55996	525	163
0	56002	525	162
0	56008	525	161
0	56014	525	160
0	56020	525	159
0	56026	525	158
0	56032	525	157
0	56038	525	157
0	56044	525	156
0	56050	525	156
0	56056	525	155
0	56062	525	495
0	56068	525	395
0	56074	525	494
0	56080	525	394
0	56086	525	493
0	56092	525	393
0	56098	525	392
0	56104	525	391
0	56110	525	390
0	56116	525	389
0	56122	525	388
0	56128	525	492
0	56134	525	491
0	56140	525	490
0	56146	525	489
0	56152	525	488
0	56158	525	487
0	56164	525	387
0	56170	525	486
0	56176	525	386
0	56182	525	485
0	56188	525	385
0	56194	525	484
0	56200	525	384
0	56206	525	483
0	56212	525	383
0	56218	525	482
0	56224	525	382
0	56230	525	481
0	56236	525	381
0	56242	525	480
0	56248	525	380
0	56254	525	478
0	56260	525	477
0	56266	525	476
0	56272	525	475
0	56278	525	474
0	56284	525	473
0	56290	525	472
0	56296	525	471
0	56302	525	470
0	56308	525	469
0	56314	525	468
0	56320	525	467
0	56326	525	466
0	56332	525	465
0	56338	525	464
0	56344	525	463
0	56350	525	462
0	56356	525	155
0	56362	525	154
0	56368	525	476
0	56374	525	376
0	56380	525	375
0	56386	525	475
0	56392	525	474
0	56398	525	374
0	56404	525	473
0	56410	525	373
0	56416	525	472
0	56422	525	372
0	56428	525	471
0	56434	525	371
0	56440	525	470
0	56446	525	370
0	56452	525	469
0	56458	525	369
0	56464	525	468
0	56470	525	368
0	56476	525	367
0	56482	525	366
0	56488	525	467
0	56494	525	466
0	56500	525	465
0	56506	525	365
0	56512	525	464
0	56518	525	364
0	56524	525	463
0	56530	525	363
0	56536	525	462
0	56542	525	362
0	56548	525	153
0	56554	525	294
0	56560	525	293
0	56566	525	292
0	56572	525	291
0	56578	525	290
0	56584	525	289
0	56590	525	288
0	56596	525	287
0	56602	525	286
0	56608	525	285
0	56614	525	284
0	56620	525	283
0	56626	525	282
0	56632	525	281
0	56638	525	280
0	56644	525	279
0	56650	525	278
0	56656	525	277
0	56662	525	276
0	56668	525	275
0	56674	525	274
0	56680	525	273
0	56686	525	272
0	56692	525	271
0	56698	525	270
0	56704	525	269
0	56710	525	268
0	56716	525	267
0	56722	525	266
0	56728	525	265
0	56734	525	264
0	56740	525	263
0	56746	525	262
0	56752	525	261
0	56758	525	260
0	56764	525	259
0	56770	525	258
0	56776	525	257
0	56782	525	256
0	56788	525	255
0	56794	525	254
0	56800	525	253
0	56806	525	252
0	56812	525	152
0	56818	525	153
0	56824	525	294
0	56830	525	293
0	56836	525	292
0	56842	525	291
0	56848	525	495
0	56854	525	395
0	56860	525	494
0	56866	525	394
0	56872	525	493
0	56878	525	393
0	56884	525	392
0	56890	525	391
0	56896	525	390
0	56902	525	290
0	56908	525	389
0	56914	525	289
0	56920	525	388
0	56926	525	288
0	56932	525	492
0	56938	525	491
0	56944	525	490
0	56950	525	489
0	56956	525	488
0	56962	525	487
0	56968	525	387
0	56974	525	287
0	56980	525	486
0	56986	525	386
0	56992	525	286
0	56998	525	485
0	57004	525	385
0	57010	525	285
0	57016	525	484
0	57022	525	384
0	57028	525	284
0	57034	525	283
0	57040	525	483
0	57046	525	383
0	57052	525	482
0	57058	525	382
0	57064	525	282
0	57070	525	481
0	57076	525	381
0	57082	525	281
0	57088	525	480
0	57094	525	380
0	57100	525	280
0	57106	525	479
0	57112	525	379
0	57118	525	279
0	57124	525	478
0	57130	525	378
0	57136	525	278
0	57142	525	477
0	57148	525	377
0	57154	525	277
0	57160	525	276
0	57166	525	275
0	57172	525	274
0	57178	525	273
0	57184	525	272
0	57190	525	271
0	57196	525	270
0	57202	525	269
0	57208	525	476
0	57214	525	376
0	57220	525	375
0	57226	525	475
0	57232	525	474
0	57238	525	374
0	57244	525	473
0	57250	525	373
0	57256	525	472
0	57262	525	372
0	57268	525	471
0	57274	525	371
0	57280	525	470
0	57286	525	370
0	57292	525	469
0	57298	525	369
0	57304	525	468
0	57310	525	368
0	57316	525	268
0	57322	525	367
0	57328	525	267
0	57334	525	366
0	57340	525	266
0	57346	525	467
0	57352	525	466
0	57358	525	465
0	57364	525	365
0	57370	525	265
0	57376	525	464
0	57382	525	364
0	57388	525	264
0	57394	525	463
0	57400	525	363
0	57406	525	263
0	57412	525	462
0	57418	525	362
0	57424	525	262
0	57430	525	261
0	57436	525	260
0	57442	525	259
0	57448	525	258
0	57454	525	257
0	57460	525	256
0	57466	525	255
0	57472	525	254
0	57478	525	253
0	57484	525	252
0	57490	525	152
0	57496	525	251
0	57502	525	151
0	57508	525	251
0	57514	525	151
0	57520	525	144
0	57526	525	143
0	57532	525	142
0	57538	525	141
0	57544	525	140
0	57550	525	139
0	57556	525	250
0	57562	525	150
0	57568	525	249
0	57574	525	149
0	57580	525	148
0	57586	525	147
0	57592	525	146
0	57598	525	145
0	57604	525	250
0	57610	525	249
0	57616	525	248
0	57622	525	247
0	57628	525	246
0	57634	525	245
0	57640	525	244
0	57646	525	243
0	57652	525	242
0	57658	525	241
0	57664	525	240
0	57670	525	239
0	57676	525	238
0	57682	525	138
0	57688	525	237
0	57694	525	137
0	57700	525	236
0	57706	525	136
0	57712	525	235
0	57718	525	154
0	57724	525	294
0	57730	525	293
0	57736	525	292
0	57742	525	291
0	57748	525	495
0	57754	525	395
0	57760	525	494
0	57766	525	394
0	57772	525	493
0	57778	525	393
0	57784	525	392
0	57790	525	391
0	57796	525	390
0	57802	525	290
0	57808	525	389
0	57814	525	289
0	57820	525	388
0	57826	525	288
0	57832	525	492
0	57838	525	491
0	57844	525	490
0	57850	525	489
0	57856	525	488
0	57862	525	487
0	57868	525	387
0	57874	525	287
0	57880	525	486
0	57886	525	386
0	57892	525	286
0	57898	525	485
0	57904	525	385
0	57910	525	285
0	57916	525	484
0	57922	525	384
0	57928	525	284
0	57934	525	283
0	57940	525	483
0	57946	525	383
0	57952	525	482
0	57958	525	382
0	57964	525	282
0	57970	525	481
0	57976	525	381
0	57982	525	281
0	57988	525	480
0	57994	525	380
0	58000	525	280
0	58006	525	479
0	58012	525	379
0	58018	525	279
0	58024	525	478
0	58030	525	378
0	58036	525	278
0	58042	525	477
0	58048	525	377
0	58054	525	277
0	58060	525	276
0	58066	525	275
0	58072	525	274
0	58078	525	273
0	58084	525	272
0	58090	525	271
0	58096	525	270
0	58102	525	269
0	58108	525	476
0	58114	525	376
0	58120	525	375
0	58126	525	475
0	58132	525	474
0	58138	525	374
0	58144	525	473
0	58150	525	373
0	58156	525	472
0	58162	525	372
0	58168	525	471
0	58174	525	371
0	58180	525	470
0	58186	525	370
0	58192	525	469
0	58198	525	369
0	58204	525	468
0	58210	525	368
0	58216	525	268
0	58222	525	367
0	58228	525	267
0	58234	525	366
0	58240	525	266
0	58246	525	467
0	58252	525	466
0	58258	525	465
0	58264	525	365
0	58270	525	265
0	58276	525	464
0	58282	525	364
0	58288	525	264
0	58294	525	463
0	58300	525	363
0	58306	525	263
0	58312	525	462
0	58318	525	362
0	58324	525	262
0	58330	525	261
0	58336	525	260
0	58342	525	259
0	58348	525	258
0	58354	525	257
0	58360	525	256
0	58366	525	255
0	58372	525	254
0	58378	525	253
0	58384	525	252
0	58390	525	144
0	58396	525	143
0	58402	525	142
0	58408	525	141
0	58414	525	140
0	58420	525	139
0	58426	525	251
0	58432	525	250
0	58438	525	249
0	58444	525	461
0	58450	525	460
0	58456	525	459
0	58462	525	458
0	58468	525	457
0	58474	525	456
0	58480	525	455
0	58486	525	454
0	58492	525	453
0	58498	525	452
0	58504	525	451
0	58510	525	450
0	58516	525	449
0	58522	525	448
0	58528	525	447
0	58534	525	446
0	58540	525	445
0	58546	525	444
0	58552	525	443
0	58558	525	442
0	58564	525	440
0	58570	525	439
0	58576	525	438
0	58582	525	248
0	58588	525	247
0	58594	525	246
0	58600	525	245
0	58606	525	244
0	58612	525	243
0	58618	525	242
0	58624	525	241
0	58630	525	361
0	58636	525	360
0	58642	525	359
0	58648	525	358
0	58654	525	357
0	58660	525	356
0	58666	525	355
0	58672	525	354
0	58678	525	353
0	58684	525	352
0	58690	525	351
0	58696	525	350
0	58702	525	349
0	58708	525	348
0	58714	525	347
0	58720	525	346
0	58726	525	345
0	58732	525	344
0	58738	525	343
0	58744	525	342
0	58750	525	441
0	58756	525	341
0	58762	525	340
0	58768	525	240
0	58774	525	339
0	58780	525	239
0	58786	525	338
0	58792	525	238
0	58798	525	138
0	58804	525	437
0	58810	525	337
0	58816	525	237
0	58822	525	137
0	58828	525	236
0	58834	525	136
0	58840	525	436
0	58846	525	336
0	58852	525	435
0	58858	525	335
0	58864	525	235
0	58870	525	332
0	58876	525	232
0	58882	525	132
0	58888	525	331
0	58894	525	231
0	58900	525	131
0	58906	525	330
0	58912	525	230
0	58918	525	130
0	58924	525	329
0	58930	525	229
0	58936	525	129
0	58942	525	328
0	58948	525	228
0	58954	525	128
0	58960	525	434
0	58966	525	433
0	58972	525	432
0	58978	525	431
0	58984	525	430
0	58990	525	429
0	58996	525	428
0	59002	525	427
0	59008	525	327
0	59014	525	227
0	59020	525	127
0	59026	525	426
0	59032	525	326
0	59038	525	425
0	59044	525	436
0	59050	525	336
0	59056	525	435
0	59062	525	335
0	59068	525	235
0	59074	525	135
0	59080	525	334
0	59086	525	234
0	59092	525	134
0	59098	525	333
0	59104	525	233
0	59110	525	133
0	59116	525	441
0	59122	525	361
0	59128	525	360
0	59134	525	359
0	59140	525	358
0	59146	525	357
0	59152	525	461
0	59158	525	460
0	59164	525	459
0	59170	525	458
0	59176	525	457
0	59182	525	456
0	59188	525	356
0	59194	525	455
0	59200	525	355
0	59206	525	454
0	59212	525	354
0	59218	525	453
0	59224	525	353
0	59230	525	452
0	59236	525	352
0	59242	525	451
0	59248	525	351
0	59254	525	450
0	59260	525	350
0	59266	525	449
0	59272	525	349
0	59278	525	448
0	59284	525	348
0	59290	525	447
0	59296	525	347
0	59302	525	446
0	59308	525	346
0	59314	525	445
0	59320	525	345
0	59326	525	444
0	59332	525	344
0	59338	525	443
0	59344	525	343
0	59350	525	442
0	59356	525	342
0	59362	525	341
0	59368	525	340
0	59374	525	440
0	59380	525	439
0	59386	525	339
0	59392	525	438
0	59398	525	338
0	59404	525	437
0	59410	525	337
0	59416	525	332
0	59422	525	232
0	59428	525	331
0	59434	525	231
0	59440	525	330
0	59446	525	230
0	59452	525	132
0	59458	525	131
0	59464	525	130
0	59470	525	329
0	59476	525	229
0	59482	525	129
0	59488	525	328
0	59494	525	228
0	59500	525	128
0	59506	525	434
0	59512	525	433
0	59518	525	432
0	59524	525	431
0	59530	525	430
0	59536	525	429
0	59542	525	428
0	59548	525	427
0	59554	525	327
0	59560	525	227
0	59566	525	426
0	59572	525	326
0	59578	525	226
0	59584	525	425
0	59590	525	225
0	59596	525	224
0	59602	525	220
0	59608	525	219
0	59614	525	218
0	59620	525	217
0	59626	525	216
0	59632	525	215
0	59638	525	214
0	59644	525	213
0	59650	525	212
0	59656	525	211
0	59662	525	210
0	59668	525	425
0	59674	525	325
0	59680	525	424
0	59686	525	324
0	59692	525	323
0	59698	525	322
0	59704	525	321
0	59710	525	320
0	59716	525	319
0	59722	525	318
0	59728	525	317
0	59734	525	423
0	59740	525	422
0	59746	525	421
0	59752	525	525
0	59758	525	524
0	59764	525	523
0	59770	525	522
0	59776	525	521
0	59782	525	520
0	59788	525	420
0	59794	525	519
0	59800	525	419
0	59806	525	518
0	59812	525	418
0	59818	525	517
0	59824	525	417
0	59830	525	516
0	59836	525	416
0	59842	525	316
0	59848	525	515
0	59854	525	415
0	59860	525	315
0	59866	525	414
0	59872	525	314
0	59878	525	413
0	59884	525	313
0	59890	525	312
0	59896	525	311
0	59902	525	310
0	59908	525	309
0	59914	525	209
0	59920	525	308
0	59926	525	208
0	59932	525	307
0	59938	525	207
0	59944	525	412
0	59950	525	411
0	59956	525	410
0	59962	525	514
0	59968	525	513
0	59974	525	512
0	59980	525	511
0	59986	525	510
0	59992	525	509
0	59998	525	409
0	60004	525	408
0	60010	525	407
0	60016	525	508
0	60022	525	507
0	60028	525	506
0	60034	525	406
0	60040	525	306
0	60046	525	206
0	60052	525	505
0	60058	525	405
0	60064	525	305
0	60070	525	205
0	60076	525	504
0	60082	525	404
0	60088	525	304
0	60094	525	204
0	60100	525	503
0	60106	525	403
0	60112	525	303
0	60118	525	203
0	60124	525	402
0	60130	525	302
0	60136	525	202
0	60142	525	401
0	60148	525	301
0	60154	525	300
0	60160	525	502
0	60166	525	501
0	60172	525	500
0	60178	525	499
0	60184	525	400
0	60190	525	399
0	60196	525	498
0	60202	525	398
0	60208	525	497
0	60214	525	397
0	60220	525	299
0	60226	525	298
0	60232	525	297
0	60238	525	496
0	60244	525	396
0	60250	525	296
0	60256	525	295
0	60262	525	193
0	60268	525	192
0	60274	525	191
0	60280	525	190
0	60286	525	189
0	60292	525	188
0	60298	525	187
0	60304	525	181
0	60310	525	180
0	60316	525	179
0	60322	525	495
0	60328	525	494
0	60334	525	493
0	60340	525	483
0	60346	525	383
0	60352	525	482
0	60358	525	382
0	60364	525	481
0	60370	525	381
0	60376	525	480
0	60382	525	380
0	60388	525	492
0	60394	525	491
0	60400	525	490
0	60406	525	489
0	60412	525	488
0	60418	525	487
0	60424	525	486
0	60430	525	485
0	60436	525	484
0	60442	525	479
0	60448	525	379
0	60454	525	478
0	60460	525	378
0	60466	525	178
0	60472	525	477
0	60478	525	377
0	60484	525	177
0	60490	525	176
0	60496	525	175
0	60502	525	174
0	60508	525	173
0	60514	525	172
0	60520	525	171
0	60526	525	170
0	60532	525	169
0	60538	525	168
0	60544	525	167
0	60550	525	476
0	60556	525	376
0	60562	525	166
0	60568	525	375
0	60574	525	475
0	60580	525	474
0	60586	525	374
0	60592	525	473
0	60598	525	373
0	60604	525	472
0	60610	525	372
0	60616	525	471
0	60622	525	371
0	60628	525	470
0	60634	525	370
0	60640	525	469
0	60646	525	369
0	60652	525	468
0	60658	525	368
0	60664	525	367
0	60670	525	366
0	60676	525	467
0	60682	525	466
0	60688	525	165
0	60694	525	465
0	60700	525	365
0	60706	525	464
0	60712	525	364
0	60718	525	164
0	60724	525	463
0	60730	525	363
0	60736	525	163
0	60742	525	162
0	60748	525	159
0	60754	525	158
0	60760	525	462
0	60766	525	157
0	60772	525	362
0	60778	525	156
0	60784	525	250
0	60790	525	150
0	60796	525	249
0	60802	525	149
0	60808	525	148
0	60814	525	147
0	60820	525	146
0	60826	525	145
0	60832	525	436
0	60838	525	336
0	60844	525	435
0	60850	525	335
0	60856	525	235
0	60862	525	135
0	60868	525	334
0	60874	525	234
0	60880	525	134
0	60886	525	333
0	60892	525	233
0	60898	525	133
0	60904	525	441
0	60910	525	361
0	60916	525	360
0	60922	525	359
0	60928	525	358
0	60934	525	357
0	60940	525	461
0	60946	525	460
0	60952	525	459
0	60958	525	458
0	60964	525	457
0	60970	525	456
0	60976	525	356
0	60982	525	455
0	60988	525	355
0	60994	525	454
0	61000	525	354
0	61006	525	453
0	61012	525	353
0	61018	525	452
0	61024	525	352
0	61030	525	451
0	61036	525	351
0	61042	525	450
0	61048	525	350
0	61054	525	449
0	61060	525	349
0	61066	525	448
0	61072	525	348
0	61078	525	447
0	61084	525	347
0	61090	525	446
0	61096	525	346
0	61102	525	445
0	61108	525	345
0	61114	525	444
0	61120	525	344
0	61126	525	443
0	61132	525	343
0	61138	525	442
0	61144	525	342
0	61150	525	341
0	61156	525	340
0	61162	525	440
0	61168	525	439
0	61174	525	339
0	61180	525	438
0	61186	525	338
0	61192	525	437
0	61198	525	337
0	61204	525	332
0	61210	525	232
0	61216	525	331
0	61222	525	231
0	61228	525	330
0	61234	525	230
0	61240	525	132
0	61246	525	131
0	61252	525	130
0	61258	525	329
0	61264	525	229
0	61270	525	129
0	61276	525	328
0	61282	525	228
0	61288	525	128
0	61294	525	434
0	61300	525	433
0	61306	525	432
0	61312	525	431
0	61318	525	430
0	61324	525	429
0	61330	525	428
0	61336	525	427
0	61342	525	327
0	61348	525	227
0	61354	525	127
0	61360	525	426
0	61366	525	326
0	61372	525	395
0	61378	525	394
0	61384	525	393
0	61390	525	392
0	61396	525	391
0	61402	525	390
0	61408	525	389
0	61414	525	388
0	61420	525	387
0	61426	525	386
0	61432	525	385
0	61438	525	384
0	61444	525	294
0	61450	525	293
0	61456	525	292
0	61462	525	291
0	61468	525	290
0	61474	525	289
0	61480	525	288
0	61486	525	287
0	61492	525	286
0	61498	525	285
0	61504	525	284
0	61510	525	283
0	61516	525	282
0	61522	525	281
0	61528	525	280
0	61534	525	279
0	61540	525	278
0	61546	525	277
0	61552	525	276
0	61558	525	275
0	61564	525	274
0	61570	525	273
0	61576	525	272
0	61582	525	271
0	61588	525	270
0	61594	525	269
0	61600	525	268
0	61606	525	267
0	61612	525	266
0	61618	525	265
0	61624	525	264
0	61630	525	263
0	61636	525	262
0	61642	525	261
0	61648	525	260
0	61654	525	259
0	61660	525	258
0	61666	525	257
0	61672	525	256
0	61678	525	255
0	61684	525	254
0	61690	525	253
0	61696	525	252
0	61702	525	251
0	61708	525	248
0	61714	525	247
0	61720	525	246
0	61726	525	245
0	61732	525	244
0	61738	525	243
0	61744	525	242
0	61750	525	241
0	61756	525	240
0	61762	525	239
0	61768	525	238
0	61774	525	237
0	61780	525	236
0	61786	525	226
0	61792	525	225
0	61798	525	224
0	61804	525	223
0	61810	525	222
0	61816	525	221
0	61822	525	223
0	61828	525	222
0	61834	525	221
0	61840	525	426
0	61846	525	326
0	61852	525	226
0	61858	525	126
0	61864	525	225
0	61870	525	125
0	61876	525	224
0	61882	525	124
0	61888	525	123
0	61894	525	122
0	61900	525	121
0	61906	525	120
0	61912	525	119
0	61918	525	118
0	61924	525	117
0	61930	525	116
0	61936	525	115
0	61942	525	114
0	61948	525	113
0	61954	525	111
0	61960	525	110
0	61966	525	109
0	61972	525	108
0	61978	525	107
0	61984	525	220
0	61990	525	219
0	61996	525	218
0	62002	525	217
0	62008	525	216
0	62014	525	215
0	62020	525	214
0	62026	525	213
0	62032	525	212
0	62038	525	211
0	62044	525	210
0	62050	525	425
0	62056	525	325
0	62062	525	424
0	62068	525	324
0	62074	525	323
0	62080	525	322
0	62086	525	321
0	62092	525	320
0	62098	525	319
0	62104	525	318
0	62110	525	317
0	62116	525	423
0	62122	525	422
0	62128	525	421
0	62134	525	525
0	62140	525	524
0	62146	525	523
0	62152	525	522
0	62158	525	521
0	62164	525	520
0	62170	525	420
0	62176	525	519
0	62182	525	419
0	62188	525	518
0	62194	525	418
0	62200	525	517
0	62206	525	417
0	62212	525	516
0	62218	525	416
0	62224	525	316
0	62230	525	515
0	62236	525	415
0	62242	525	315
0	62248	525	414
0	62254	525	314
0	62260	525	413
0	62266	525	313
0	62272	525	312
0	62278	525	311
0	62284	525	310
0	62290	525	309
0	62296	525	209
0	62302	525	308
0	62308	525	208
0	62314	525	307
0	62320	525	207
0	62326	525	412
0	62332	525	411
0	62338	525	410
0	62344	525	514
0	62350	525	513
0	62356	525	512
0	62362	525	511
0	62368	525	510
0	62374	525	509
0	62380	525	409
0	62386	525	408
0	62392	525	407
0	62398	525	508
0	62404	525	507
0	62410	525	506
0	62416	525	406
0	62422	525	306
0	62428	525	206
0	62434	525	106
0	62440	525	505
0	62446	525	405
0	62452	525	305
0	62458	525	205
0	62464	525	105
0	62470	525	504
0	62476	525	404
0	62482	525	304
0	62488	525	204
0	62494	525	104
0	62500	525	503
0	62506	525	403
0	62512	525	303
0	62518	525	203
0	62524	525	103
0	62530	525	402
0	62536	525	302
0	62542	525	202
0	62548	525	102
0	62554	525	101
0	62560	525	100
0	62566	525	99
0	62572	525	98
0	62578	525	97
0	62584	525	96
0	62590	525	401
0	62596	525	301
0	62602	525	201
0	62608	525	300
0	62614	525	200
0	62620	525	199
0	62626	525	198
0	62632	525	502
0	62638	525	501
0	62644	525	500
0	62650	525	400
0	62656	525	499
0	62662	525	399
0	62668	525	299
0	62674	525	498
0	62680	525	398
0	62686	525	298
0	62692	525	497
0	62698	525	397
0	62704	525	297
0	62710	525	197
0	62716	525	496
0	62722	525	396
0	62728	525	296
0	62734	525	196
0	62740	525	295
0	62746	525	195
0	62752	525	95
0	62758	525	194
0	62764	525	94
0	62770	525	193
0	62776	525	93
0	62782	525	192
0	62788	525	92
0	62794	525	191
0	62800	525	91
0	62806	525	90
0	62812	525	89
0	62818	525	88
0	62824	525	190
0	62830	525	189
0	62836	525	188
0	62842	525	187
0	62848	525	87
0	62854	525	86
0	62860	525	85
0	62866	525	84
0	62872	525	83
0	62878	525	186
0	62884	525	185
0	62890	525	184
0	62896	525	183
0	62902	525	182
0	62908	525	82
0	62914	525	181
0	62920	525	81
0	62926	525	180
0	62932	525	80
0	62938	525	179
0	62944	525	79
0	62950	525	178
0	62956	525	78
0	62962	525	77
0	62968	525	177
0	62974	525	176
0	62980	525	76
0	62986	525	175
0	62992	525	75
0	62998	525	74
0	63004	525	73
0	63010	525	72
0	63016	525	71
0	63022	525	70
0	63028	525	174
0	63034	525	173
0	63040	525	172
0	63046	525	171
0	63052	525	170
0	63058	525	169
0	63064	525	69
0	63070	525	168
0	63076	525	68
0	63082	525	167
0	63088	525	67
0	63094	525	166
0	63100	525	66
0	63106	525	165
0	63112	525	65
0	63118	525	164
0	63124	525	64
0	63130	525	163
0	63136	525	63
0	63142	525	162
0	63148	525	62
0	63154	525	161
0	63160	525	61
0	63166	525	160
0	63172	525	60
0	63178	525	159
0	63184	525	59
0	63190	525	158
0	63196	525	58
0	63202	525	157
0	63208	525	57
0	63214	525	156
0	63220	525	56
0	63226	525	155
0	63232	525	55
0	63238	525	154
0	63244	525	54
0	63250	525	53
0	63256	525	153
0	63262	525	294
0	63268	525	293
0	63274	525	292
0	63280	525	291
0	63286	525	495
0	63292	525	395
0	63298	525	494
0	63304	525	394
0	63310	525	493
0	63316	525	393
0	63322	525	392
0	63328	525	391
0	63334	525	390
0	63340	525	290
0	63346	525	389
0	63352	525	289
0	63358	525	388
0	63364	525	288
0	63370	525	492
0	63376	525	491
0	63382	525	490
0	63388	525	489
0	63394	525	488
0	63400	525	487
0	63406	525	387
0	63412	525	287
0	63418	525	486
0	63424	525	386
0	63430	525	286
0	63436	525	485
0	63442	525	385
0	63448	525	285
0	63454	525	484
0	63460	525	384
0	63466	525	284
0	63472	525	283
0	63478	525	483
0	63484	525	383
0	63490	525	482
0	63496	525	382
0	63502	525	282
0	63508	525	481
0	63514	525	381
0	63520	525	281
0	63526	525	480
0	63532	525	380
0	63538	525	280
0	63544	525	479
0	63550	525	379
0	63556	525	279
0	63562	525	478
0	63568	525	378
0	63574	525	278
0	63580	525	477
0	63586	525	377
0	63592	525	277
0	63598	525	276
0	63604	525	275
0	63610	525	274
0	63616	525	273
0	63622	525	272
0	63628	525	271
0	63634	525	270
0	63640	525	269
0	63646	525	476
0	63652	525	376
0	63658	525	375
0	63664	525	475
0	63670	525	474
0	63676	525	374
0	63682	525	473
0	63688	525	373
0	63694	525	472
0	63700	525	372
0	63706	525	471
0	63712	525	371
0	63718	525	470
0	63724	525	370
0	63730	525	469
0	63736	525	369
0	63742	525	468
0	63748	525	368
0	63754	525	268
0	63760	525	367
0	63766	525	267
0	63772	525	366
0	63778	525	266
0	63784	525	467
0	63790	525	466
0	63796	525	465
0	63802	525	365
0	63808	525	265
0	63814	525	464
0	63820	525	364
0	63826	525	264
0	63832	525	463
0	63838	525	363
0	63844	525	263
0	63850	525	462
0	63856	525	362
0	63862	525	262
0	63868	525	261
0	63874	525	260
0	63880	525	259
0	63886	525	258
0	63892	525	257
0	63898	525	256
0	63904	525	255
0	63910	525	254
0	63916	525	253
0	63922	525	252
0	63928	525	152
0	63934	525	52
0	63940	525	251
0	63946	525	151
0	63952	525	51
0	63958	525	250
0	63964	525	150
0	63970	525	50
0	63976	525	249
0	63982	525	149
0	63988	525	49
0	63994	525	148
0	64000	525	48
0	64006	525	147
0	64012	525	47
0	64018	525	146
0	64024	525	46
0	64030	525	145
0	64036	525	45
0	64042	525	44
0	64048	525	43
0	64054	525	42
0	64060	525	41
0	64066	525	144
0	64072	525	143
0	64078	525	142
0	64084	525	141
0	64090	525	140
0	64096	525	40
0	64102	525	139
0	64108	525	39
0	64114	525	248
0	64120	525	247
0	64126	525	246
0	64132	525	245
0	64138	525	244
0	64144	525	243
0	64150	525	242
0	64156	525	241
0	64162	525	361
0	64168	525	360
0	64174	525	359
0	64180	525	358
0	64186	525	357
0	64192	525	461
0	64198	525	460
0	64204	525	459
0	64210	525	458
0	64216	525	457
0	64222	525	456
0	64228	525	356
0	64234	525	455
0	64240	525	355
0	64246	525	454
0	64252	525	354
0	64258	525	453
0	64264	525	353
0	64270	525	452
0	64276	525	352
0	64282	525	451
0	64288	525	351
0	64294	525	450
0	64300	525	350
0	64306	525	449
0	64312	525	349
0	64318	525	448
0	64324	525	348
0	64330	525	447
0	64336	525	347
0	64342	525	446
0	64348	525	346
0	64354	525	445
0	64360	525	345
0	64366	525	444
0	64372	525	344
0	64378	525	443
0	64384	525	343
0	64390	525	442
0	64396	525	342
0	64402	525	441
0	64408	525	341
0	64414	525	340
0	64420	525	240
0	64426	525	440
0	64432	525	439
0	64438	525	339
0	64444	525	239
0	64450	525	438
0	64456	525	338
0	64462	525	238
0	64468	525	138
0	64474	525	38
0	64480	525	437
0	64486	525	337
0	64492	525	237
0	64498	525	137
0	64504	525	37
0	64510	525	236
0	64516	525	136
0	64522	525	36
0	64528	525	436
0	64534	525	336
0	64540	525	435
0	64546	525	335
0	64552	525	235
0	64558	525	135
0	64564	525	35
0	64570	525	334
0	64576	525	234
0	64582	525	134
0	64588	525	34
0	64594	525	333
0	64600	525	233
0	64606	525	133
0	64612	525	33
0	64618	525	32
0	64624	525	31
0	64630	525	332
0	64636	525	232
0	64642	525	132
0	64648	525	331
0	64654	525	231
0	64660	525	131
0	64666	525	330
0	64672	525	230
0	64678	525	130
0	64684	525	30
0	64690	525	329
0	64696	525	229
0	64702	525	129
0	64708	525	29
0	64714	525	328
0	64720	525	228
0	64726	525	128
0	64732	525	28
0	64738	525	434
0	64744	525	433
0	64750	525	432
0	64756	525	431
0	64762	525	430
0	64768	525	429
0	64774	525	428
0	64780	525	427
0	64786	525	327
0	64792	525	227
0	64798	525	127
0	64804	525	27
0	64810	525	26
0	64816	525	25
0	64822	525	24
0	64828	525	23
0	64834	525	22
0	64840	525	426
0	64846	525	326
0	64852	525	226
0	64858	525	126
0	64864	525	225
0	64870	525	125
0	64876	525	224
0	64882	525	124
0	64888	525	223
0	64894	525	123
0	64900	525	222
0	64906	525	122
0	64912	525	221
0	64918	525	121
0	64924	525	21
0	64930	525	120
0	64936	525	20
0	64942	525	119
0	64948	525	19
0	64954	525	118
0	64960	525	18
0	64966	525	117
0	64972	525	17
0	64978	525	116
0	64984	525	16
0	64990	525	115
0	64996	525	15
0	65002	525	114
0	65008	525	14
0	65014	525	113
0	65020	525	113
0	65026	525	13
0	65032	525	112
0	65038	525	112
0	65044	525	12
0	65050	525	112
0	65056	525	220
0	65062	525	219
0	65068	525	218
0	65074	525	217
0	65080	525	216
0	65086	525	215
0	65092	525	214
0	65098	525	213
0	65104	525	212
0	65110	525	211
0	65116	525	210
0	65122	525	425
0	65128	525	325
0	65134	525	424
0	65140	525	324
0	65146	525	323
0	65152	525	322
0	65158	525	321
0	65164	525	320
0	65170	525	319
0	65176	525	318
0	65182	525	317
0	65188	525	423
0	65194	525	422
0	65200	525	421
0	65206	525	525
0	65212	525	524
0	65218	525	523
0	65224	525	522
0	65230	525	521
0	65236	525	520
0	65242	525	420
0	65248	525	519
0	65254	525	419
0	65260	525	518
0	65266	525	418
0	65272	525	517
0	65278	525	417
0	65284	525	516
0	65290	525	416
0	65296	525	316
0	65302	525	515
0	65308	525	415
0	65314	525	315
0	65320	525	414
0	65326	525	314
0	65332	525	413
0	65338	525	313
0	65344	525	312
0	65350	525	311
0	65356	525	310
0	65362	525	309
0	65368	525	209
0	65374	525	308
0	65380	525	208
0	65386	525	307
0	65392	525	207
0	65398	525	412
0	65404	525	411
0	65410	525	410
0	65416	525	514
0	65422	525	513
0	65428	525	512
0	65434	525	511
0	65440	525	510
0	65446	525	509
0	65452	525	409
0	65458	525	408
0	65464	525	407
0	65470	525	508
0	65476	525	507
0	65482	525	506
0	65488	525	406
0	65494	525	306
0	65500	525	206
0	65506	525	505
0	65512	525	405
0	65518	525	305
0	65524	525	205
0	65925	527	506
0	65931	527	406
0	65937	527	306
0	65943	527	206
0	65949	527	505
0	65955	527	405
0	65961	527	305
0	65967	527	205
0	65973	527	404
0	65979	527	304
0	65985	527	204
0	65991	527	425
0	65997	527	424
0	66003	527	423
0	66009	527	527
0	66015	527	526
0	66021	527	525
0	66027	527	524
0	66033	527	523
0	66039	527	522
0	66045	527	422
0	66051	527	521
0	66057	527	421
0	66063	527	520
0	66069	527	420
0	66075	527	519
0	66081	527	419
0	66087	527	518
0	66093	527	418
0	66099	527	517
0	66105	527	417
0	66111	527	416
0	66117	527	415
0	66123	527	427
0	66129	527	327
0	66135	527	426
0	66141	527	326
0	66147	527	325
0	66153	527	324
0	66159	527	323
0	66165	527	322
0	66171	527	321
0	66177	527	320
0	66183	527	319
0	66189	527	318
0	66195	527	317
0	66201	527	316
0	66207	527	315
0	66213	527	314
0	66219	527	313
0	66225	527	312
0	66231	527	311
0	66237	527	310
0	66243	527	309
0	66249	527	510
0	66255	527	509
0	66261	527	508
0	66267	527	414
0	66273	527	413
0	66279	527	412
0	66285	527	516
0	66291	527	515
0	66297	527	514
0	66303	527	513
0	66309	527	512
0	66315	527	511
0	66321	527	411
0	66327	527	410
0	66333	527	409
0	66339	527	408
0	66345	527	308
0	66351	527	507
0	66357	527	407
0	66363	527	307
0	66369	527	403
0	66375	527	303
0	66381	527	302
0	66692	537	23
0	66704	537	22
0	66715	537	21
0	66726	537	20
0	66737	537	19
0	66748	537	18
0	66759	537	17
0	66770	537	16
0	66781	537	15
0	66792	537	14
0	66803	537	13
0	66814	537	12
0	66825	537	11
0	66836	537	10
0	66847	537	9
0	66858	537	8
0	66869	537	7
0	66880	537	6
0	66891	537	5
0	66902	537	4
0	66913	537	3
0	66924	537	2
0	66931	537	1
0	66960	538	1
0	66987	539	1
0	67014	540	1
0	67039	541	1
0	67548	561	460
0	67554	561	550
0	67560	561	549
0	67566	561	548
0	67572	561	547
0	67578	561	546
0	67584	561	545
0	67590	561	448
0	67596	561	447
0	67602	561	446
0	67608	561	445
[...]
0	295090	967	925
0	295096	967	494
0	295102	967	825
0	295108	967	693
0	295114	967	924
0	295120	967	593
0	295126	967	824
0	295132	967	493
0	295138	967	724
0	295144	967	692
0	295150	967	923
0	295156	967	592
0	295162	967	823
0	295168	967	492
0	295174	967	723
0	295180	967	691
0	295186	967	922
0	295192	967	591
0	295198	967	822
0	295204	967	491
0	295210	967	722
0	295216	967	590
0	295222	967	921
0	295228	967	490
0	295234	967	821
0	295240	967	589
0	295246	967	721
0	295252	967	489
0	295258	967	920
0	295264	967	588
0	295270	967	820
0	295276	967	488
0	295282	967	720
0	295288	967	587
0	295294	967	919
0	295300	967	487
0	295306	967	819
0	295312	967	486
0	295318	967	719
0	295324	967	485
0	295330	967	718
0	295336	967	484
0	295342	967	717
0	295348	967	483
0	295354	967	716
0	295360	967	586
0	295366	967	715
0	295372	967	585
0	295378	967	714
0	295384	967	584
0	295390	967	713
0	295396	967	583
0	295402	967	712
0	295408	967	582
0	295414	967	711
0	295420	967	482
0	295426	967	918
0	295432	967	581
0	295438	967	818
0	295444	967	481
0	295450	967	817
0	295456	967	690
0	295462	967	917
0	295468	967	689
0	295474	967	916
0	295480	967	688
0	295486	967	816
0	295492	967	687
0	295498	967	915
0	295504	967	686
0	295510	967	815
0	295516	967	685
0	295522	967	914
0	295528	967	684
0	295534	967	814
0	295540	967	683
0	295546	967	913
0	295552	967	803
0	295558	967	813
0	295564	967	802
0	295570	967	912
0	295576	967	801
0	295582	967	812
0	295588	967	800
0	295594	967	911
0	295600	967	799
0	295606	967	811
0	295612	967	903
0	295618	967	910
0	295624	967	902
0	295630	967	810
0	295636	967	901
0	295642	967	710
0	295648	967	900
0	295654	967	809
0	295660	967	899
0	295666	967	709
0	295672	967	898
0	295678	967	808
0	295684	967	798
0	295690	967	708
0	295696	967	897
0	295702	967	909
0	295708	967	797
0	295714	967	908
0	295720	967	896
0	295726	967	907
0	295732	967	796
0	295738	967	807
0	295744	967	895
0	295750	967	707
0	295756	967	795
0	295762	967	906
0	295768	967	894
0	295774	967	806
0	295780	967	794
0	295786	967	706
0	295792	967	893
0	295798	967	905
0	295804	967	793
0	295810	967	805
0	295816	967	892
0	295822	967	705
0	295828	967	792
0	295834	967	904
0	295840	967	891
0	295846	967	804
0	295852	967	791
0	295858	967	704
0	295864	967	890
0	295870	967	703
0	295876	967	790
0	295882	967	702
0	295888	967	889
0	295894	967	701
0	295900	967	789
0	295906	967	700
0	295912	967	888
0	295918	967	699
0	295924	967	788
0	295930	967	698
0	295936	967	887
0	295942	967	697
0	295948	967	787
0	295954	967	696
0	295960	967	886
0	295966	967	695
0	295972	967	786
0	295978	967	694
0	295984	967	885
0	295990	967	594
0	295996	967	785
0	296002	967	494
0	296008	967	884
0	296014	967	693
0	296020	967	784
0	296026	967	593
0	296032	967	883
0	296038	967	493
0	296044	967	783
0	296050	967	692
0	296056	967	782
0	296062	967	592
0	296068	967	682
0	296074	967	492
0	296080	967	882
0	296086	967	691
0	296092	967	881
0	296098	967	591
0	296104	967	781
0	296110	967	491
0	296116	967	681
0	296122	967	590
0	296128	967	880
0	296134	967	490
0	296140	967	780
0	296146	967	589
0	296152	967	680
0	296158	967	489
0	296164	967	580
0	296170	967	588
0	296176	967	480
0	296182	967	488
0	296188	967	879
0	296194	967	587
0	296200	967	779
0	296206	967	487
0	296212	967	679
0	296218	967	486
0	296224	967	579
0	296230	967	485
0	296236	967	479
0	296242	967	484
0	296248	967	678
0	296254	967	483
0	296260	967	578
0	296266	967	586
0	296272	967	478
0	296278	967	585
0	296284	967	878
0	296290	967	584
0	296296	967	778
0	296302	967	583
0	296308	967	877
0	296314	967	582
0	296320	967	777
0	296326	967	482
0	296332	967	677
0	296338	967	581
0	296344	967	577
0	296350	967	481
0	296356	967	477
0	296362	967	690
0	296368	967	776
0	296374	967	689
0	296380	967	676
0	296386	967	688
0	296392	967	576
0	296398	967	687
0	296404	967	476
0	296410	967	686
0	296416	967	775
0	296422	967	685
0	296428	967	675
0	296434	967	684
0	296440	967	575
0	296446	967	683
0	296452	967	475
0	296458	967	803
0	296464	967	474
0	296470	967	802
0	296476	967	473
0	296482	967	801
0	296488	967	774
0	296494	967	800
0	296500	967	674
0	296506	967	799
0	296512	967	574
0	296518	967	903
0	296524	967	773
0	296530	967	902
0	296536	967	673
0	296542	967	901
0	296548	967	573
0	296554	967	900
0	296560	967	772
0	296566	967	899
0	296572	967	672
0	296578	967	898
0	296584	967	572
0	296590	967	798
0	296596	967	472
0	296602	967	897
0	296608	967	771
0	296614	967	797
0	296620	967	671
0	296626	967	896
0	296632	967	571
0	296638	967	796
0	296644	967	471
0	296650	967	895
0	296656	967	770
0	296662	967	795
0	296668	967	670
0	296674	967	894
0	296680	967	570
0	296686	967	794
0	296692	967	470
0	296698	967	893
0	296704	967	876
0	296710	967	793
0	296716	967	875
0	296722	967	892
0	296728	967	874
0	296734	967	792
0	296740	967	873
0	296746	967	891
0	296752	967	872
0	296758	967	791
0	296764	967	871
0	296770	967	890
0	296776	967	870
0	296782	967	790
0	296788	967	869
0	296794	967	889
0	296800	967	769
0	296806	967	789
0	296812	967	669
0	296818	967	888
0	296824	967	569
0	296830	967	788
0	296836	967	469
0	296842	967	887
0	296848	967	468
0	296854	967	787
0	296860	967	467
0	296866	967	886
0	296872	967	466
0	296878	967	786
0	296884	967	465
0	296890	967	885
0	296896	967	464
0	296902	967	785
0	296908	967	868
0	296914	967	884
0	296920	967	768
0	296926	967	784
0	296932	967	668
0	296938	967	883
0	296944	967	568
0	296950	967	783
0	296956	967	667
0	296962	967	782
0	296968	967	567
0	296974	967	682
0	296980	967	666
0	296986	967	882
0	296992	967	566
0	296998	967	881
0	297004	967	665
0	297010	967	781
0	297016	967	565
0	297022	967	681
0	297028	967	664
0	297034	967	880
0	297040	967	564
0	297046	967	780
0	297052	967	663
0	297058	967	680
0	297064	967	563
0	297070	967	580
0	297076	967	463
0	297082	967	480
0	297088	967	562
0	297094	967	879
0	297100	967	462
0	297106	967	779
0	297112	967	561
0	297118	967	679
0	297124	967	461
0	297130	967	579
0	297136	967	560
0	297142	967	479
0	297148	967	460
0	297154	967	678
0	297160	967	559
0	297166	967	578
0	297172	967	459
0	297178	967	478
0	297184	967	558
0	297190	967	878
0	297196	967	458
0	297202	967	778
0	297208	967	557
0	297214	967	877
0	297220	967	457
0	297226	967	777
0	297232	967	357
0	297238	967	677
0	297244	967	556
0	297250	967	577
0	297256	967	456
0	297262	967	477
0	297268	967	356
0	297274	967	776
0	297280	967	555
0	297286	967	676
0	297292	967	455
0	297298	967	576
0	297304	967	355
0	297310	967	476
0	297316	967	554
0	297322	967	775
0	297328	967	454
0	297334	967	675
0	297340	967	354
0	297346	967	575
0	297352	967	351
0	297358	967	475
0	297364	967	350
0	297370	967	474
0	297376	967	349
0	297382	967	473
0	297388	967	348
0	297394	967	774
0	297400	967	347
0	297406	967	674
0	297412	967	346
0	297418	967	574
0	297424	967	345
0	297430	967	773
0	297436	967	245
0	297442	967	673
0	297448	967	344
0	297454	967	573
0	297460	967	244
0	297466	967	772
0	297472	967	343
0	297478	967	672
0	297484	967	243
0	297490	967	572
0	297496	967	342
0	297502	967	472
0	297508	967	242
0	297514	967	771
0	297520	967	341
0	297526	967	671
0	297532	967	241
0	297538	967	571
0	297544	967	340
0	297550	967	471
0	297556	967	240
0	297562	967	770
0	297568	967	339
0	297574	967	670
0	297580	967	239
0	297586	967	570
0	297592	967	338
0	297598	967	470
0	297604	967	238
0	297610	967	876
0	297616	967	337
0	297622	967	875
0	297628	967	237
0	297634	967	874
0	297640	967	336
0	297646	967	873
0	297652	967	236
0	297658	967	872
0	297664	967	335
0	297670	967	871
0	297676	967	235
0	297682	967	870
0	297688	967	334
0	297694	967	869
0	297700	967	234
0	297706	967	769
0	297712	967	233
0	297718	967	669
0	297724	967	232
0	297730	967	569
0	297736	967	333
0	297742	967	469
0	297748	967	332
0	297754	967	468
0	297760	967	453
0	297766	967	467
0	297772	967	452
0	297778	967	466
0	297784	967	451
0	297790	967	465
0	297796	967	450
0	297802	967	464
0	297808	967	449
0	297814	967	868
0	297820	967	448
0	297826	967	768
0	297832	967	447
0	297838	967	668
0	297844	967	446
0	297850	967	568
0	297856	967	445
0	297862	967	667
0	297868	967	444
0	297874	967	567
0	297880	967	443
0	297886	967	666
0	297892	967	442
0	297898	967	566
0	297904	967	441
0	297910	967	665
0	297916	967	440
0	297922	967	565
0	297928	967	439
0	297934	967	664
0	297940	967	438
0	297946	967	564
0	297952	967	437
0	297958	967	663
0	297964	967	436
0	297970	967	563
0	297976	967	435
0	297982	967	463
0	297988	967	434
0	297994	967	562
0	298000	967	433
0	298006	967	462
0	298012	967	432
0	298018	967	561
0	298024	967	431
0	298030	967	461
0	298036	967	331
0	298042	967	560
0	298048	967	231
0	298054	967	460
0	298060	967	430
0	298066	967	559
0	298072	967	330
0	298078	967	459
0	298084	967	230
0	298090	967	558
0	298096	967	429
0	298102	967	458
0	298108	967	329
0	298114	967	557
0	298120	967	229
0	298126	967	457
0	298132	967	428
0	298138	967	357
0	298144	967	328
0	298150	967	556
0	298156	967	228
0	298162	967	456
0	298168	967	427
0	298174	967	356
0	298180	967	327
0	298186	967	555
0	298192	967	227
0	298198	967	455
0	298204	967	326
0	298210	967	355
0	298216	967	226
0	298222	967	554
0	298228	967	325
0	298234	967	454
0	298240	967	225
0	298246	967	354
0	298252	967	324
0	298258	967	351
0	298264	967	224
0	298270	967	350
0	298276	967	323
0	298282	967	349
0	298288	967	223
0	298294	967	348
0	298300	967	322
0	298306	967	347
0	298312	967	222
0	298318	967	346
0	298324	967	321
0	298330	967	345
0	298336	967	221
0	298342	967	245
0	298348	967	320
0	298354	967	344
0	298360	967	220
0	298366	967	244
0	298372	967	319
0	298378	967	343
0	298384	967	219
0	298390	967	243
0	298396	967	318
0	298402	967	342
0	298408	967	218
0	298414	967	242
0	298420	967	317
0	298426	967	341
0	298432	967	217
0	298438	967	241
0	298444	967	216
0	298450	967	340
0	298456	967	215
0	298462	967	240
0	298468	967	214
0	298474	967	339
0	298480	967	316
0	298486	967	239
0	298492	967	315
0	298498	967	338
0	298504	967	314
0	298510	967	238
0	298516	967	313
0	298522	967	337
0	298528	967	213
0	298534	967	237
0	298540	967	113
0	298546	967	336
0	298552	967	312
0	298558	967	236
0	298564	967	212
0	298570	967	335
0	298576	967	112
0	298582	967	235
0	298588	967	311
0	298594	967	334
0	298600	967	211
0	298606	967	234
0	298612	967	111
0	298618	967	233
0	298624	967	310
0	298630	967	232
0	298636	967	210
0	298642	967	333
0	298648	967	110
0	298654	967	332
0	298660	967	309
0	298666	967	453
0	298672	967	209
0	298678	967	452
0	298684	967	109
0	298690	967	451
0	298696	967	308
0	298702	967	450
0	298708	967	208
0	298714	967	449
0	298720	967	108
0	298726	967	448
0	298732	967	107
0	298738	967	447
0	298744	967	106
0	298750	967	446
0	298756	967	105
0	298762	967	445
0	298768	967	104
0	298774	967	444
0	298780	967	103
0	298786	967	443
0	298792	967	102
0	298798	967	442
0	298804	967	101
0	298810	967	441
0	298816	967	440
0	298822	967	439
0	298828	967	438
0	298834	967	437
0	298840	967	436
0	298846	967	435
0	298852	967	434
0	298858	967	433
0	298864	967	432
0	298870	967	431
0	298876	967	331
0	298882	967	231
0	298888	967	430
0	298894	967	330
0	298900	967	230
0	298906	967	429
0	298912	967	329
0	298918	967	229
0	298924	967	428
0	298930	967	328
0	298936	967	228
0	298942	967	427
0	298948	967	327
0	298954	967	227
0	298960	967	326
0	298966	967	226
0	298972	967	325
0	298978	967	225
0	298984	967	324
0	298990	967	224
0	298996	967	323
0	299002	967	223
0	299008	967	322
0	299014	967	222
0	299020	967	321
0	299026	967	221
0	299032	967	320
0	299038	967	220
0	299044	967	319
0	299050	967	219
0	299056	967	318
0	299062	967	218
0	299068	967	317
0	299074	967	217
0	299080	967	216
0	299086	967	215
0	299092	967	214
0	299098	967	316
0	299104	967	315
0	299110	967	314
0	299116	967	313
0	299122	967	213
0	299128	967	113
0	299134	967	312
0	299140	967	212
0	299146	967	112
0	299152	967	311
0	299158	967	211
0	299164	967	111
0	299170	967	310
0	299176	967	210
0	299182	967	110
0	299188	967	309
0	299194	967	209
0	299200	967	109
0	299206	967	308
0	299212	967	208
0	299218	967	108
0	299224	967	107
0	299230	967	106
0	299236	967	105
0	299242	967	104
0	299248	967	103
0	299254	967	102
0	299260	967	101
0	299266	967	1
0	299350	968	308
0	299368	968	308
0	299385	968	208
0	299399	968	208
0	299409	968	307
0	299416	968	307
0	299422	968	207
0	299428	968	207
0	299434	968	306
0	299440	968	306
0	299446	968	206
0	299452	968	206
0	299458	968	305
0	299464	968	305
0	299470	968	205
0	299476	968	205
0	299482	968	304
0	299488	968	304
0	299494	968	204
0	299500	968	204
0	299506	968	203
0	299512	968	203
0	299518	968	202
0	299524	968	202
0	299530	968	201
0	299536	968	201
0	299542	968	101
0	299548	968	101
0	299554	968	1
0	299596	969	307
0	299611	969	201
0	299621	969	306
0	299628	969	101
0	299634	969	305
0	299640	969	1
0	299646	969	201
0	299652	969	101
0	299764	970	201
0	299780	970	101
0	300724	971	611
0	300732	971	610
0	300738	971	609
0	300744	971	608
0	300750	971	607
0	300756	971	606
0	300762	971	605
0	300768	971	604
0	300774	971	603
0	300780	971	602
0	300786	971	430
0	300792	971	429
0	300798	971	428
0	300804	971	427
0	300810	971	426
0	300816	971	425
0	300822	971	424
0	300828	971	423
0	300834	971	422
0	300840	971	421
0	300846	971	420
0	300852	971	419
0	300858	971	418
0	300864	971	417
0	300870	971	416
0	300876	971	415
0	300882	971	414
0	300888	971	413
0	300894	971	412
0	300900	971	411
0	300906	971	410
0	300912	971	409
0	300918	971	408
0	300924	971	407
0	300930	971	406
0	300936	971	405
0	300942	971	404
0	300948	971	403
0	300954	971	402
0	300960	971	941
0	300966	971	841
0	300972	971	940
0	300978	971	840
0	300984	971	939
0	300990	971	839
0	300996	971	838
0	301002	971	837
0	301008	971	836
0	301014	971	835
0	301020	971	834
0	301026	971	938
0	301032	971	937
0	301038	971	936
0	301044	971	935
0	301050	971	934
0	301056	971	933
0	301062	971	833
0	301068	971	932
0	301074	971	832
0	301080	971	931
0	301086	971	831
0	301092	971	930
0	301098	971	830
0	301104	971	929
0	301110	971	829
0	301116	971	928
0	301122	971	828
0	301128	971	927
0	301134	971	827
0	301140	971	926
0	301146	971	826
0	301152	971	924
0	301158	971	923
0	301164	971	922
0	301170	971	921
0	301176	971	920
0	301182	971	919
0	301188	971	918
0	301194	971	917
0	301200	971	916
0	301206	971	915
0	301212	971	914
0	301218	971	913
0	301224	971	912
0	301230	971	911
0	301236	971	910
0	301242	971	909
0	301248	971	908
0	301254	971	601
0	301260	971	401
0	301360	974	205
0	301367	974	105
0	301373	974	5
0	301379	974	4
0	301385	974	3
0	301391	974	2
0	301397	974	1
0	302918	987	13
0	302929	987	12
0	302936	987	416
0	302942	987	415
0	302948	987	414
0	302954	987	11
0	302960	987	217
0	302966	987	117
0	302972	987	216
0	302978	987	116
0	302984	987	215
0	302990	987	115
0	302996	987	114
0	303002	987	113
0	303008	987	214
0	303014	987	213
0	303020	987	212
0	303026	987	112
0	303032	987	211
0	303038	987	111
0	303044	987	322
0	303050	987	321
0	303056	987	320
0	303062	987	319
0	303068	987	446
0	303074	987	445
0	303080	987	444
0	303086	987	443
0	303092	987	442
0	303098	987	441
0	303104	987	440
0	303110	987	439
0	303116	987	438
0	303122	987	437
0	303128	987	436
0	303134	987	435
0	303140	987	434
0	303146	987	433
0	303152	987	432
0	303158	987	431
0	303164	987	430
0	303170	987	429
0	303176	987	428
0	303182	987	427
0	303188	987	426
0	303194	987	425
0	303200	987	424
0	303206	987	423
0	303212	987	422
0	303218	987	421
0	303224	987	420
0	303230	987	419
0	303236	987	418
0	303242	987	318
0	303248	987	417
0	303254	987	317
0	303260	987	316
0	303266	987	315
0	303272	987	314
0	303278	987	313
0	303284	987	312
0	303290	987	311
0	303296	987	310
0	303302	987	210
0	303308	987	110
0	303314	987	217
0	303320	987	117
0	303326	987	216
0	303332	987	116
0	303338	987	215
0	303344	987	115
0	303350	987	114
0	303356	987	113
0	303362	987	214
0	303368	987	213
0	303374	987	212
0	303380	987	112
0	303386	987	211
0	303392	987	111
0	303398	987	322
0	303404	987	321
0	303410	987	320
0	303416	987	319
0	303422	987	446
0	303428	987	445
0	303434	987	444
0	303440	987	443
0	303446	987	442
0	303452	987	441
0	303458	987	440
0	303464	987	439
0	303470	987	438
0	303476	987	437
0	303482	987	436
0	303488	987	435
0	303494	987	434
0	303500	987	433
0	303506	987	432
0	303512	987	431
0	303518	987	430
0	303524	987	429
0	303530	987	428
0	303536	987	427
0	303542	987	426
0	303548	987	425
0	303554	987	424
0	303560	987	423
0	303566	987	422
0	303572	987	421
0	303578	987	420
0	303584	987	419
0	303590	987	418
0	303596	987	318
0	303602	987	417
0	303608	987	317
0	303614	987	416
0	303620	987	316
0	303626	987	415
0	303632	987	315
0	303638	987	414
0	303644	987	314
0	303650	987	313
0	303656	987	312
0	303662	987	311
0	303668	987	310
0	303674	987	210
0	303680	987	110
0	303686	987	10
0	303692	987	309
0	303698	987	209
0	303704	987	109
0	303710	987	208
0	303716	987	108
0	303722	987	107
0	303728	987	106
0	304263	989	329
0	304283	989	229
0	304299	989	328
0	304309	989	228
0	304316	989	327
0	304322	989	227
0	304328	989	326
0	304334	989	226
0	304340	989	325
0	304346	989	225
0	304352	989	224
0	304358	989	223
0	304364	989	222
0	304370	989	221
0	304376	989	220
0	304382	989	219
0	304388	989	218
0	304394	989	217
0	304400	989	216
0	304406	989	215
0	304412	989	214
0	304418	989	213
0	304424	989	324
0	304430	989	323
0	304436	989	322
0	304442	989	321
0	304448	989	448
0	304454	989	447
0	304460	989	446
0	304466	989	445
0	304472	989	444
0	304478	989	443
0	304484	989	442
0	304490	989	441
0	304496	989	440
0	304502	989	439
0	304508	989	438
0	304514	989	437
0	304520	989	436
0	304526	989	435
0	304532	989	434
0	304538	989	433
0	304544	989	432
0	304550	989	431
0	304556	989	430
0	304562	989	429
0	304568	989	428
0	304574	989	427
0	304580	989	426
0	304586	989	425
0	304592	989	424
0	304598	989	423
0	304604	989	422
0	304610	989	421
0	304616	989	420
0	304622	989	320
0	304628	989	419
0	304634	989	319
0	304640	989	418
0	304646	989	318
0	304652	989	417
0	304658	989	317
0	304664	989	416
0	304670	989	316
0	304676	989	315
0	304682	989	314
0	304688	989	313
0	304694	989	312
0	304700	989	212
0	304706	989	311
0	304712	989	211
0	304718	989	210
0	304724	989	311
0	304730	989	211
0	304736	989	111
0	304742	989	11
0	304748	989	210
0	304754	989	110
0	304760	989	10
0	304766	989	109
0	304772	989	9
0	304778	989	108
0	304784	989	8
0	304790	989	7
0	304796	989	6
0	304802	989	5
0	304808	989	4
0	304814	989	107
0	304820	989	106
0	304826	989	105
0	304832	989	104
0	304838	989	103
0	304844	989	3
0	304850	989	102
0	304856	989	2
0	304862	989	101
0	304868	989	1
0	304888	990	101
0	304906	990	1
0	304931	991	101
0	304948	991	1
0	304996	992	101
0	305004	992	1
0	305669	994	112
0	305680	994	111
0	305687	994	110
0	305693	994	109
0	305699	994	108
0	305705	994	107
0	305711	994	329
0	305717	994	328
0	305723	994	327
0	305729	994	326
0	305735	994	453
0	305741	994	452
0	305747	994	451
0	305753	994	450
0	305759	994	449
0	305765	994	448
0	305771	994	447
0	305777	994	446
0	305783	994	445
0	305789	994	444
0	305795	994	443
0	305801	994	442
0	305807	994	441
0	305813	994	440
0	305819	994	439
0	305825	994	438
0	305831	994	437
0	305837	994	436
0	305843	994	435
0	305849	994	434
0	305855	994	433
0	305861	994	432
0	305867	994	431
0	305873	994	430
0	305879	994	429
0	305885	994	428
0	305891	994	427
0	305897	994	426
0	305903	994	425
0	305909	994	325
0	305915	994	424
0	305921	994	324
0	305927	994	423
0	305933	994	323
0	305939	994	422
0	305945	994	322
0	305951	994	421
0	305957	994	321
0	305963	994	320
0	305969	994	319
0	305975	994	318
0	305981	994	317
0	305987	994	316
0	305993	994	315
0	305999	994	314
0	306005	994	313
0	306011	994	312
0	306017	994	311
0	306023	994	310
0	306029	994	309
0	306035	994	308
0	306041	994	307
0	306047	994	306
0	306053	994	106
0	306059	994	305
0	306065	994	105
0	306071	994	104
0	306077	994	103
0	306083	994	214
0	306089	994	213
0	306095	994	212
0	306101	994	211
0	306107	994	210
0	306113	994	209
0	306119	994	208
0	306125	994	207
0	306131	994	206
0	306137	994	205
0	306143	994	204
0	306149	994	203
0	306155	994	202
0	306161	994	102
0	306167	994	420
0	306173	994	419
0	306179	994	418
0	306185	994	417
0	306191	994	416
0	306197	994	415
0	306203	994	414
0	306209	994	413
0	306215	994	412
0	306221	994	411
0	306227	994	410
0	306233	994	409
0	306239	994	408
0	306245	994	407
0	306251	994	406
0	306257	994	405
0	306263	994	404
0	306269	994	403
0	306275	994	402
0	306281	994	401
0	306287	994	201
0	306307	995	401
0	306317	995	201
0	306591	996	401
0	306599	996	201
0	306650	997	201


