version 2
run General-0-20250128-19:30:00-109002
attr configname General
attr datetime 20250128-19:30:00
attr experiment General
attr inifile shaw_false.ini
attr iterationvars ""
attr iterationvarsf ""
attr measurement ""
attr network src.dtnsim
attr processid 109002
attr repetition 0
attr replication #0
attr resultdir results
attr runnumber 0
attr seedset 0
param dtnsim.central.contactsFile "\"contactPlan/Contacts.txt\""
param dtnsim.central.contactsFile_A "\"contactPlan/Contacts.txt\""
param dtnsim.central.contactsFile_B "\"contactPlan/Contacts.txt\""
param dtnsim.central.contactIdsToDelete "\"8 9 10 12 16 28 32 36 40 41 43 47 49 50 51 52 59 62 75 77 85 89 90 96 101 102 107 110 119 122 130 152 153 154 155 159 167 173 176 178 180 185 187 190 193 196 199 201 202 204 207 209 214 226 231 236 237 238 241 245 247 249 253 255 267 278 279 283 286 288 292 294 295 303 304 310 311 319 325 326 331 332 335 342 345 349 351 360 362 364 368 370 373 377 387 389 394 396 398 399\""
param dtnsim.central.contactIdsToDelete_from_celestialA "\"9 10 32 40 41 49 52 77 85 89 96 101 110 119 130 152 154 159 173 176 178 180 187 193 199 201 204 207 214 226 231 241 245 247 278 283 286 288 304 325 332 335 345 349 351 362 368 370 373 387 389 399\""
param dtnsim.central.contactIdsToDelete_from_celestialB "\"8 12 16 28 36 43 47 50 51 59 62 75 90 102 107 122 153 155 167 185 190 196 202 209 236 237 238 249 253 255 267 279 292 294 295 303 310 311 319 326 331 342 360 364 377 394 396 398\""
param dtnsim.central.celestialA_nodes "\"1 2 3\""
param dtnsim.central.celestialB_nodes "\"4 5 6\""
param dtnsim.central.locallyfaultsAware false
param dtnsim.central.mode_two_celestial true
param dtnsim.central.faultsAware false
param dtnsim.nodesNumber 6
param dtnsim.node[1].icon "\"receiverdish\""
param dtnsim.node[2..5].icon "\"satellite\""
param dtnsim.node[6].icon "\"receiverdish\""
param dtnsim.node[*].dtn.routing "\"cgrModel350\""
param dtnsim.node[*].dtn.routingType "\"routeListType:allPaths-firstEnding,volumeAware:allContacts,extensionBlock:on,contactPlan:global\""
param dtnsim.node[1].app.enable true
param dtnsim.node[1].app.custodyTransfer true
param dtnsim.node[1].app.bundlesNumber "\"2000\""
param dtnsim.node[1].app.start "\"0\""
param dtnsim.node[1].app.destinationEid "\"6\""
param dtnsim.node[1].app.size "\"1500\""
param dtnsim.node[1].app.interval 10
param dtnsim.node[*].app.custodyTimeout 100000000000000
param dtnsim.node[1].app.ttl 5000

vector 0 dtnsim.node[6].app appBundleReceivedDelayvec:vector ETV
attr interpolationmode none
attr source appBundleReceivedDelay
attr title "appBundleReceivedDelayvec, vector"
0	4012	4250.19	750.19
0	4042	4260.19	750.19
0	4079	4270.19	750.19
0	4116	4280.19	750.19
0	4753	4290.19	1340.19
0	4754	4290.19	1330.19
0	4755	4290.19	1320.19
0	4756	4290.19	1310.19
0	4757	4290.19	1300.19
0	4758	4290.19	1290.19
0	4759	4290.19	1280.19
0	4760	4290.19	1270.19
0	4761	4290.19	1260.19
0	4762	4290.19	1250.19
0	4763	4290.19	1240.19
0	4764	4290.19	1230.19
0	4765	4290.19	1220.19
0	4766	4290.19	1210.19
0	4767	4290.19	1200.19
0	4768	4290.19	1190.19
0	4769	4290.19	1180.19
0	4770	4290.19	1170.19
0	4771	4290.19	1160.19
0	4772	4290.19	1150.19
0	4773	4290.19	1140.19
0	4774	4290.19	1130.19
0	4775	4290.19	1120.19
0	4776	4290.19	1110.19
0	4777	4290.19	1100.19
0	4778	4290.19	1090.19
0	4779	4290.19	1080.19
0	4780	4290.19	1070.19
0	4781	4290.19	1060.19
0	4782	4290.19	1050.19
0	4783	4290.19	1040.19
0	4784	4290.19	1030.19
0	4785	4290.19	1020.19
0	4786	4290.19	1010.19
0	4787	4290.19	1000.19
0	4788	4290.19	990.19
0	4789	4290.19	980.19
0	4790	4290.19	970.19
0	4791	4290.19	960.19
0	4792	4290.19	950.19
0	4793	4290.19	940.19
0	4794	4290.19	930.19
0	4795	4290.19	920.19
0	4796	4290.19	910.19
0	4797	4290.19	900.19
0	4798	4290.19	890.19
0	4799	4290.19	880.19
0	4800	4290.19	870.19
0	4801	4290.19	860.19
0	4802	4290.19	850.19
0	4803	4290.19	750.19
0	5102	4300.19	850.19
0	5103	4300.19	750.19
0	6068	4310.19	850.19
0	6069	4310.19	750.19
0	6123	4350.19	850.19
0	6150	4360.19	850.19
0	6180	4370.19	850.19
0	6210	4380.19	850.19
0	6840	4390.19	1440.19
0	6841	4390.19	1430.19
0	6842	4390.19	1420.19
0	6843	4390.19	1410.19
0	6844	4390.19	1400.19
0	6845	4390.19	1390.19
0	6846	4390.19	1380.19
0	6847	4390.19	1370.19
0	6848	4390.19	1360.19
0	6849	4390.19	1350.19
0	6850	4390.19	1340.19
0	6851	4390.19	1330.19
0	6852	4390.19	1320.19
0	6853	4390.19	1310.19
0	6854	4390.19	1300.19
0	6855	4390.19	1290.19
0	6856	4390.19	1280.19
0	6857	4390.19	1270.19
0	6858	4390.19	1260.19
0	6859	4390.19	1250.19
0	6860	4390.19	1240.19
0	6861	4390.19	1230.19
0	6862	4390.19	1220.19
0	6863	4390.19	1210.19
0	6864	4390.19	1200.19
0	6865	4390.19	1190.19
0	6866	4390.19	1180.19
0	6867	4390.19	1170.19
0	6868	4390.19	1160.19
0	6869	4390.19	1150.19
0	6870	4390.19	1140.19
0	6871	4390.19	1130.19
0	6872	4390.19	1120.19
0	6873	4390.19	1110.19
0	6874	4390.19	1100.19
0	6875	4390.19	1090.19
0	6876	4390.19	1080.19
0	6877	4390.19	1070.19
0	6878	4390.19	1060.19
0	6879	4390.19	1050.19
0	6880	4390.19	1040.19
0	6881	4390.19	1030.19
0	6882	4390.19	1020.19
0	6883	4390.19	1010.19
0	6884	4390.19	1000.19
0	6885	4390.19	990.19
0	6886	4390.19	980.19
0	6887	4390.19	970.19
0	6888	4390.19	960.19
0	6889	4390.19	950.19
0	6890	4390.19	850.19
0	7182	4400.19	950.19
0	7183	4400.19	850.19
0	7230	4410.19	950.19
0	7231	4410.19	850.19
0	7272	4450.19	950.19
0	7302	4460.19	950.19
0	7330	4470.19	950.19
0	7359	4480.19	950.19
0	7987	4490.19	1540.19
0	7988	4490.19	1530.19
0	7989	4490.19	1520.19
0	7990	4490.19	1510.19
0	7991	4490.19	1500.19
0	7992	4490.19	1490.19
0	7993	4490.19	1480.19
0	7994	4490.19	1470.19
0	7995	4490.19	1460.19
0	7996	4490.19	1450.19
0	7997	4490.19	1440.19
0	7998	4490.19	1430.19
0	7999	4490.19	1420.19
0	8000	4490.19	1410.19
0	8001	4490.19	1400.19
0	8002	4490.19	1390.19
0	8003	4490.19	1380.19
0	8004	4490.19	1370.19
0	8005	4490.19	1360.19
0	8006	4490.19	1350.19
0	8007	4490.19	1340.19
0	8008	4490.19	1330.19
0	8009	4490.19	1320.19
0	8010	4490.19	1310.19
0	8011	4490.19	1300.19
0	8012	4490.19	1290.19
0	8013	4490.19	1280.19
0	8014	4490.19	1270.19
0	8015	4490.19	1260.19
0	8016	4490.19	1250.19
0	8017	4490.19	1240.19
0	8018	4490.19	1230.19
0	8019	4490.19	1220.19
0	8020	4490.19	1210.19
0	8021	4490.19	1200.19
0	8022	4490.19	1190.19
0	8023	4490.19	1180.19
0	8024	4490.19	1170.19
0	8025	4490.19	1160.19
0	8026	4490.19	1150.19
0	8027	4490.19	1140.19
0	8028	4490.19	1130.19
0	8029	4490.19	1120.19
0	8030	4490.19	1110.19
0	8031	4490.19	1100.19
0	8032	4490.19	1090.19
0	8033	4490.19	1080.19
0	8034	4490.19	1070.19
0	8035	4490.19	1060.19
0	8036	4490.19	1050.19
0	8037	4490.19	950.19
0	8327	4500.19	1050.19
0	8328	4500.19	950.19
0	8373	4510.19	1050.19
0	8374	4510.19	950.19
0	8417	4550.19	1050.19
0	8453	4560.19	1050.19
0	8487	4570.19	1050.19
0	8522	4580.19	1050.19
0	9156	4590.19	1640.19
0	9157	4590.19	1630.19
0	9158	4590.19	1620.19
0	9159	4590.19	1610.19
0	9160	4590.19	1600.19
0	9161	4590.19	1590.19
0	9162	4590.19	1580.19
0	9163	4590.19	1570.19
0	9164	4590.19	1560.19
0	9165	4590.19	1550.19
0	9166	4590.19	1540.19
0	9167	4590.19	1530.19
0	9168	4590.19	1520.19
0	9169	4590.19	1510.19
0	9170	4590.19	1500.19
0	9171	4590.19	1490.19
0	9172	4590.19	1480.19
0	9173	4590.19	1470.19
0	9174	4590.19	1460.19
0	9175	4590.19	1450.19
0	9176	4590.19	1440.19
0	9177	4590.19	1430.19
0	9178	4590.19	1420.19
0	9179	4590.19	1410.19
0	9180	4590.19	1400.19
0	9181	4590.19	1390.19
0	9182	4590.19	1380.19
0	9183	4590.19	1370.19
0	9184	4590.19	1360.19
0	9185	4590.19	1350.19
0	9186	4590.19	1340.19
0	9187	4590.19	1330.19
0	9188	4590.19	1320.19
0	9189	4590.19	1310.19
0	9190	4590.19	1300.19
0	9191	4590.19	1290.19
0	9192	4590.19	1280.19
0	9193	4590.19	1270.19
0	9194	4590.19	1260.19
0	9195	4590.19	1250.19
0	9196	4590.19	1240.19
0	9197	4590.19	1230.19
0	9198	4590.19	1220.19
0	9199	4590.19	1210.19
0	9200	4590.19	1200.19
0	9201	4590.19	1190.19
0	9202	4590.19	1180.19
0	9203	4590.19	1170.19
0	9204	4590.19	1160.19
0	9205	4590.19	1150.19
0	9206	4590.19	1050.19
0	9752	4600.19	1150.19
0	9753	4600.19	1050.19
0	9809	4610.19	1150.19
0	9810	4610.19	1050.19
0	9865	4650.19	1150.19
0	9899	4660.19	1150.19
0	9933	4670.19	1150.19
0	9967	4680.19	1150.19
0	10601	4690.19	1740.19
0	10602	4690.19	1730.19
0	10603	4690.19	1720.19
0	10604	4690.19	1710.19
0	10605	4690.19	1700.19
0	10606	4690.19	1690.19
0	10607	4690.19	1680.19
0	10608	4690.19	1670.19
0	10609	4690.19	1660.19
0	10610	4690.19	1650.19
0	10611	4690.19	1640.19
0	10612	4690.19	1630.19
0	10613	4690.19	1620.19
0	10614	4690.19	1610.19
0	10615	4690.19	1600.19
0	10616	4690.19	1590.19
0	10617	4690.19	1580.19
0	10618	4690.19	1570.19
0	10619	4690.19	1560.19
0	10620	4690.19	1550.19
0	10621	4690.19	1540.19
0	10622	4690.19	1530.19
0	10623	4690.19	1520.19
0	10624	4690.19	1510.19
0	10625	4690.19	1500.19
0	10626	4690.19	1490.19
0	10627	4690.19	1480.19
0	10628	4690.19	1470.19
0	10629	4690.19	1460.19
0	10630	4690.19	1450.19
0	10631	4690.19	1440.19
0	10632	4690.19	1430.19
0	10633	4690.19	1420.19
0	10634	4690.19	1410.19
0	10635	4690.19	1400.19
0	10636	4690.19	1390.19
0	10637	4690.19	1380.19
0	10638	4690.19	1370.19
0	10639	4690.19	1360.19
0	10640	4690.19	1350.19
0	10641	4690.19	1340.19
0	10642	4690.19	1330.19
0	10643	4690.19	1320.19
0	10644	4690.19	1310.19
0	10645	4690.19	1300.19
0	10646	4690.19	1290.19
0	10647	4690.19	1280.19
0	10648	4690.19	1270.19
0	10649	4690.19	1260.19
0	10650	4690.19	1250.19
0	10651	4690.19	1150.19
0	11197	4700.19	1250.19
0	11198	4700.19	1150.19
0	11256	4710.19	1250.19
0	11257	4710.19	1150.19
0	11311	4750.19	1250.19
0	11346	4760.19	1250.19
0	11381	4770.19	1250.19
0	11416	4780.19	1250.19
0	12051	4790.19	1840.19
0	12052	4790.19	1830.19
0	12053	4790.19	1820.19
0	12054	4790.19	1810.19
0	12055	4790.19	1800.19
0	12056	4790.19	1790.19
0	12057	4790.19	1780.19
0	12058	4790.19	1770.19
0	12059	4790.19	1760.19
0	12060	4790.19	1750.19
0	12061	4790.19	1740.19
0	12062	4790.19	1730.19
0	12063	4790.19	1720.19
0	12064	4790.19	1710.19
0	12065	4790.19	1700.19
0	12066	4790.19	1690.19
0	12067	4790.19	1680.19
0	12068	4790.19	1670.19
0	12069	4790.19	1660.19
0	12070	4790.19	1650.19
0	12071	4790.19	1640.19
0	12072	4790.19	1630.19
0	12073	4790.19	1620.19
0	12074	4790.19	1610.19
0	12075	4790.19	1600.19
0	12076	4790.19	1590.19
0	12077	4790.19	1580.19
0	12078	4790.19	1570.19
0	12079	4790.19	1560.19
0	12080	4790.19	1550.19
0	12081	4790.19	1540.19
0	12082	4790.19	1530.19
0	12083	4790.19	1520.19
0	12084	4790.19	1510.19
0	12085	4790.19	1500.19
0	12086	4790.19	1490.19
0	12087	4790.19	1480.19
0	12088	4790.19	1470.19
0	12089	4790.19	1460.19
0	12090	4790.19	1450.19
0	12091	4790.19	1440.19
0	12092	4790.19	1430.19
0	12093	4790.19	1420.19
0	12094	4790.19	1410.19
0	12095	4790.19	1400.19
0	12096	4790.19	1390.19
0	12097	4790.19	1380.19
0	12098	4790.19	1370.19
0	12099	4790.19	1360.19
0	12100	4790.19	1350.19
0	12101	4790.19	1250.19
0	12648	4800.19	1350.19
0	12649	4800.19	1250.19
0	12706	4810.19	1350.19
0	12707	4810.19	1250.19
0	12769	4850.19	1350.19
0	12807	4860.19	1350.19
0	12845	4870.19	1350.19
0	12883	4880.19	1350.19
0	13521	4890.19	1940.19
0	13522	4890.19	1930.19
0	13523	4890.19	1920.19
0	13524	4890.19	1910.19
0	13525	4890.19	1900.19
0	13526	4890.19	1890.19
0	13527	4890.19	1880.19
0	13528	4890.19	1870.19
0	13529	4890.19	1860.19
0	13530	4890.19	1850.19
0	13531	4890.19	1840.19
0	13532	4890.19	1830.19
0	13533	4890.19	1820.19
0	13534	4890.19	1810.19
0	13535	4890.19	1800.19
0	13536	4890.19	1790.19
0	13537	4890.19	1780.19
0	13538	4890.19	1770.19
0	13539	4890.19	1760.19
0	13540	4890.19	1750.19
0	13541	4890.19	1740.19
0	13542	4890.19	1730.19
0	13543	4890.19	1720.19
0	13544	4890.19	1710.19
0	13545	4890.19	1700.19
0	13546	4890.19	1690.19
0	13547	4890.19	1680.19
0	13548	4890.19	1670.19
0	13549	4890.19	1660.19
0	13550	4890.19	1650.19
0	13551	4890.19	1640.19
0	13552	4890.19	1630.19
0	13553	4890.19	1620.19
0	13554	4890.19	1610.19
0	13555	4890.19	1600.19
0	13556	4890.19	1590.19
0	13557	4890.19	1580.19
0	13558	4890.19	1570.19
0	13559	4890.19	1560.19
0	13560	4890.19	1550.19
0	13561	4890.19	1540.19
0	13562	4890.19	1530.19
0	13563	4890.19	1520.19
0	13564	4890.19	1510.19
0	13565	4890.19	1500.19
0	13566	4890.19	1490.19
0	13567	4890.19	1480.19
0	13568	4890.19	1470.19
0	13569	4890.19	1460.19
0	13570	4890.19	1450.19
0	13571	4890.19	1350.19
0	14121	4900.19	1450.19
0	14122	4900.19	1350.19
0	14182	4910.19	1450.19
0	14183	4910.19	1350.19
0	14226	4920.09	750.09
0	14259	4930.09	750.09
0	14292	4940.09	750.09
0	14326	4950.09	750.09
0	14357	4950.19	1450.19
0	14393	4960.09	750.09
0	14424	4960.19	1450.19
0	14460	4970.09	750.09
0	14491	4970.19	1450.19
0	14527	4980.09	750.09
0	14558	4980.19	1450.19
0	14644	4990.09	750.09
0	15225	4990.19	2040.19
0	15226	4990.19	2030.19
0	15227	4990.19	2020.19
0	15228	4990.19	2010.19
0	15229	4990.19	2000.19
0	15230	4990.19	1990.19
0	15231	4990.19	1980.19
0	15232	4990.19	1970.19
0	15233	4990.19	1960.19
0	15234	4990.19	1950.19
0	15235	4990.19	1940.19
0	15236	4990.19	1930.19
0	15237	4990.19	1920.19
0	15238	4990.19	1910.19
0	15239	4990.19	1900.19
0	15240	4990.19	1890.19
0	15241	4990.19	1880.19
0	15242	4990.19	1870.19
0	15243	4990.19	1860.19
0	15244	4990.19	1850.19
0	15245	4990.19	1840.19
0	15246	4990.19	1830.19
0	15247	4990.19	1820.19
0	15248	4990.19	1810.19
0	15249	4990.19	1800.19
0	15250	4990.19	1790.19
0	15251	4990.19	1780.19
0	15252	4990.19	1770.19
0	15253	4990.19	1760.19
0	15254	4990.19	1750.19
0	15255	4990.19	1740.19
0	15256	4990.19	1730.19
0	15257	4990.19	1720.19
0	15258	4990.19	1710.19
0	15259	4990.19	1700.19
0	15260	4990.19	1690.19
0	15261	4990.19	1680.19
0	15262	4990.19	1670.19
0	15263	4990.19	1660.19
0	15264	4990.19	1650.19
0	15265	4990.19	1640.19
0	15266	4990.19	1630.19
0	15267	4990.19	1620.19
0	15268	4990.19	1610.19
0	15269	4990.19	1600.19
0	15270	4990.19	1590.19
0	15271	4990.19	1580.19
0	15272	4990.19	1570.19
0	15273	4990.19	1560.19
0	15274	4990.19	1550.19
0	15275	4990.19	1450.19
0	15827	5000.19	1550.19
0	15828	5000.19	1450.19
0	15888	5010.19	1550.19
0	15889	5010.19	1450.19
0	15933	5020.09	850.09
0	15967	5030.09	850.09
0	16001	5040.09	850.09
0	16036	5050.09	850.09
0	16067	5050.19	1550.19
0	16104	5060.09	850.09
0	16363	5060.19	1550.19
0	16404	5070.19	1550.19
0	16443	5080.19	1550.19
0	17082	5090.19	2140.19
0	17083	5090.19	2130.19
0	17084	5090.19	2120.19
0	17085	5090.19	2110.19
0	17086	5090.19	2100.19
0	17087	5090.19	2090.19
0	17088	5090.19	2080.19
0	17089	5090.19	2070.19
0	17090	5090.19	2060.19
0	17091	5090.19	2050.19
0	17092	5090.19	2040.19
0	17093	5090.19	2030.19
0	17094	5090.19	2020.19
0	17095	5090.19	2010.19
0	17096	5090.19	2000.19
0	17097	5090.19	1990.19
0	17098	5090.19	1980.19
0	17099	5090.19	1970.19
0	17100	5090.19	1960.19
0	17101	5090.19	1950.19
0	17102	5090.19	1940.19
0	17103	5090.19	1930.19
0	17104	5090.19	1920.19
0	17105	5090.19	1910.19
0	17106	5090.19	1900.19
0	17107	5090.19	1890.19
0	17108	5090.19	1880.19
0	17109	5090.19	1870.19
0	17110	5090.19	1860.19
0	17111	5090.19	1850.19
0	17112	5090.19	1840.19
0	17113	5090.19	1830.19
0	17114	5090.19	1820.19
0	17115	5090.19	1810.19
0	17116	5090.19	1800.19
0	17117	5090.19	1790.19
0	17118	5090.19	1780.19
0	17119	5090.19	1770.19
0	17120	5090.19	1760.19
0	17121	5090.19	1750.19
0	17122	5090.19	1740.19
0	17123	5090.19	1730.19
0	17124	5090.19	1720.19
0	17125	5090.19	1710.19
0	17126	5090.19	1700.19
0	17127	5090.19	1690.19
0	17128	5090.19	1680.19
0	17129	5090.19	1670.19
0	17130	5090.19	1660.19
0	17131	5090.19	1650.19
0	17132	5090.19	1550.19
0	17682	5100.19	1650.19
0	17683	5100.19	1550.19
0	17743	5110.19	1650.19
0	17744	5110.19	1550.19
0	17808	5150.19	1650.19
0	17847	5160.19	1650.19
0	17885	5170.19	1650.19
0	17923	5180.19	1650.19
0	18561	5190.19	2240.19
0	18562	5190.19	2230.19
0	18563	5190.19	2220.19
0	18564	5190.19	2210.19
0	18565	5190.19	2200.19
0	18566	5190.19	2190.19
0	18567	5190.19	2180.19
0	18568	5190.19	2170.19
0	18569	5190.19	2160.19
0	18570	5190.19	2150.19
0	18571	5190.19	2140.19
0	18572	5190.19	2130.19
0	18573	5190.19	2120.19
0	18574	5190.19	2110.19
0	18575	5190.19	2100.19
0	18576	5190.19	2090.19
0	18577	5190.19	2080.19
0	18578	5190.19	2070.19
0	18579	5190.19	2060.19
0	18580	5190.19	2050.19
0	18581	5190.19	2040.19
0	18582	5190.19	2030.19
0	18583	5190.19	2020.19
0	18584	5190.19	2010.19
0	18585	5190.19	2000.19
0	18586	5190.19	1990.19
0	18587	5190.19	1980.19
0	18588	5190.19	1970.19
0	18589	5190.19	1960.19
0	18590	5190.19	1950.19
0	18591	5190.19	1940.19
0	18592	5190.19	1930.19
0	18593	5190.19	1920.19
0	18594	5190.19	1910.19
0	18595	5190.19	1900.19
0	18596	5190.19	1890.19
0	18597	5190.19	1880.19
0	18598	5190.19	1870.19
0	18599	5190.19	1860.19
0	18600	5190.19	1850.19
0	18601	5190.19	1840.19
0	18602	5190.19	1830.19
0	18603	5190.19	1820.19
0	18604	5190.19	1810.19
0	18605	5190.19	1800.19
0	18606	5190.19	1790.19
0	18607	5190.19	1780.19
0	18608	5190.19	1770.19
0	18609	5190.19	1760.19
0	18610	5190.19	1750.19
0	18611	5190.19	1650.19
0	19161	5200.19	1750.19
0	19162	5200.19	1650.19
0	19222	5210.19	1750.19
0	19223	5210.19	1650.19
0	19283	5250.19	1750.19
0	19321	5260.19	1750.19
0	19359	5270.19	1750.19
0	19397	5280.19	1750.19
0	20035	5290.19	2340.19
0	20036	5290.19	2330.19
0	20037	5290.19	2320.19
0	20038	5290.19	2310.19
0	20039	5290.19	2300.19
0	20040	5290.19	2290.19
0	20041	5290.19	2280.19
0	20042	5290.19	2270.19
0	20043	5290.19	2260.19
0	20044	5290.19	2250.19
0	20045	5290.19	2240.19
0	20046	5290.19	2230.19
0	20047	5290.19	2220.19
0	20048	5290.19	2210.19
0	20049	5290.19	2200.19
0	20050	5290.19	2190.19
0	20051	5290.19	2180.19
0	20052	5290.19	2170.19
0	20053	5290.19	2160.19
0	20054	5290.19	2150.19
0	20055	5290.19	2140.19
0	20056	5290.19	2130.19
0	20057	5290.19	2120.19
0	20058	5290.19	2110.19
0	20059	5290.19	2100.19
0	20060	5290.19	2090.19
0	20061	5290.19	2080.19
0	20062	5290.19	2070.19
0	20063	5290.19	2060.19
0	20064	5290.19	2050.19
0	20065	5290.19	2040.19
0	20066	5290.19	2030.19
0	20067	5290.19	2020.19
0	20068	5290.19	2010.19
0	20069	5290.19	2000.19
0	20070	5290.19	1990.19
0	20071	5290.19	1980.19
0	20072	5290.19	1970.19
0	20073	5290.19	1960.19
0	20074	5290.19	1950.19
0	20075	5290.19	1940.19
0	20076	5290.19	1930.19
0	20077	5290.19	1920.19
0	20078	5290.19	1910.19
0	20079	5290.19	1900.19
0	20080	5290.19	1890.19
0	20081	5290.19	1880.19
0	20082	5290.19	1870.19
0	20083	5290.19	1860.19
0	20084	5290.19	1850.19
0	20085	5290.19	1750.19
0	20635	5300.19	1850.19
0	20636	5300.19	1750.19
0	20696	5310.19	1850.19
0	20697	5310.19	1750.19
0	20757	5350.19	1850.19
0	20795	5360.19	1850.19
0	20833	5370.19	1850.19
0	20871	5380.19	1850.19
0	21509	5390.19	2440.19
0	21510	5390.19	2430.19
0	21511	5390.19	2420.19
0	21512	5390.19	2410.19
0	21513	5390.19	2400.19
0	21514	5390.19	2390.19
0	21515	5390.19	2380.19
0	21516	5390.19	2370.19
0	21517	5390.19	2360.19
0	21518	5390.19	2350.19
0	21519	5390.19	2340.19
0	21520	5390.19	2330.19
0	21521	5390.19	2320.19
0	21522	5390.19	2310.19
0	21523	5390.19	2300.19
0	21524	5390.19	2290.19
0	21525	5390.19	2280.19
0	21526	5390.19	2270.19
0	21527	5390.19	2260.19
0	21528	5390.19	2250.19
0	21529	5390.19	2240.19
0	21530	5390.19	2230.19
0	21531	5390.19	2220.19
0	21532	5390.19	2210.19
0	21533	5390.19	2200.19
0	21534	5390.19	2190.19
0	21535	5390.19	2180.19
0	21536	5390.19	2170.19
0	21537	5390.19	2160.19
0	21538	5390.19	2150.19
0	21539	5390.19	2140.19
0	21540	5390.19	2130.19
0	21541	5390.19	2120.19
0	21542	5390.19	2110.19
0	21543	5390.19	2100.19
0	21544	5390.19	2090.19
0	21545	5390.19	2080.19
0	21546	5390.19	2070.19
0	21547	5390.19	2060.19
0	21548	5390.19	2050.19
0	21549	5390.19	2040.19
0	21550	5390.19	2030.19
0	21551	5390.19	2020.19
0	21552	5390.19	2010.19
0	21553	5390.19	2000.19
0	21554	5390.19	1990.19
0	21555	5390.19	1980.19
0	21556	5390.19	1970.19
0	21557	5390.19	1960.19
0	21558	5390.19	1950.19
0	21559	5390.19	1850.19
0	22109	5400.19	1950.19
0	22110	5400.19	1850.19
0	22170	5410.19	1950.19
0	22171	5410.19	1850.19
0	22231	5450.19	1950.19
0	22269	5460.19	1950.19
0	22307	5470.19	1950.19
0	22345	5480.19	1950.19
0	22983	5490.19	2540.19
0	22984	5490.19	2530.19
0	22985	5490.19	2520.19
0	22986	5490.19	2510.19
0	22987	5490.19	2500.19
0	22988	5490.19	2490.19
0	22989	5490.19	2480.19
0	22990	5490.19	2470.19
0	22991	5490.19	2460.19
0	22992	5490.19	2450.19
0	22993	5490.19	2440.19
0	22994	5490.19	2430.19
0	22995	5490.19	2420.19
0	22996	5490.19	2410.19
0	22997	5490.19	2400.19
0	22998	5490.19	2390.19
0	22999	5490.19	2380.19
0	23000	5490.19	2370.19
0	23001	5490.19	2360.19
0	23002	5490.19	2350.19
0	23003	5490.19	2340.19
0	23004	5490.19	2330.19
0	23005	5490.19	2320.19
0	23006	5490.19	2310.19
0	23007	5490.19	2300.19
0	23008	5490.19	2290.19
0	23009	5490.19	2280.19
0	23010	5490.19	2270.19
0	23011	5490.19	2260.19
0	23012	5490.19	2250.19
0	23013	5490.19	2240.19
0	23014	5490.19	2230.19
0	23015	5490.19	2220.19
0	23016	5490.19	2210.19
0	23017	5490.19	2200.19
0	23018	5490.19	2190.19
0	23019	5490.19	2180.19
0	23020	5490.19	2170.19
0	23021	5490.19	2160.19
0	23022	5490.19	2150.19
0	23023	5490.19	2140.19
0	23024	5490.19	2130.19
0	23025	5490.19	2120.19
0	23026	5490.19	2110.19
0	23027	5490.19	2100.19
0	23028	5490.19	2090.19
0	23029	5490.19	2080.19
0	23030	5490.19	2070.19
0	23031	5490.19	2060.19
0	23032	5490.19	2050.19
0	23033	5490.19	1950.19
0	23583	5500.19	2050.19
0	23584	5500.19	1950.19
0	23644	5510.19	2050.19
0	23645	5510.19	1950.19
0	23705	5550.19	2050.19
0	23743	5560.19	2050.19
0	23781	5570.19	2050.19
0	23819	5580.19	2050.19
0	24457	5590.19	2640.19
0	24458	5590.19	2630.19
0	24459	5590.19	2620.19
0	24460	5590.19	2610.19
0	24461	5590.19	2600.19
0	24462	5590.19	2590.19
0	24463	5590.19	2580.19
0	24464	5590.19	2570.19
0	24465	5590.19	2560.19
0	24466	5590.19	2550.19
0	24467	5590.19	2540.19
0	24468	5590.19	2530.19
0	24469	5590.19	2520.19
0	24470	5590.19	2510.19
0	24471	5590.19	2500.19
0	24472	5590.19	2490.19
0	24473	5590.19	2480.19
0	24474	5590.19	2470.19
0	24475	5590.19	2460.19
0	24476	5590.19	2450.19
0	24477	5590.19	2440.19
0	24478	5590.19	2430.19
0	24479	5590.19	2420.19
0	24480	5590.19	2410.19
0	24481	5590.19	2400.19
0	24482	5590.19	2390.19
0	24483	5590.19	2380.19
0	24484	5590.19	2370.19
0	24485	5590.19	2360.19
0	24486	5590.19	2350.19
0	24487	5590.19	2340.19
0	24488	5590.19	2330.19
0	24489	5590.19	2320.19
0	24490	5590.19	2310.19
0	24491	5590.19	2300.19
0	24492	5590.19	2290.19
0	24493	5590.19	2280.19
0	24494	5590.19	2270.19
0	24495	5590.19	2260.19
0	24496	5590.19	2250.19
0	24497	5590.19	2240.19
0	24498	5590.19	2230.19
0	24499	5590.19	2220.19
0	24500	5590.19	2210.19
0	24501	5590.19	2200.19
0	24502	5590.19	2190.19
0	24503	5590.19	2180.19
0	24504	5590.19	2170.19
0	24505	5590.19	2160.19
0	24506	5590.19	2150.19
0	24507	5590.19	2050.19
0	25057	5600.19	2150.19
0	25058	5600.19	2050.19
0	25118	5610.19	2150.19
0	25119	5610.19	2050.19
0	25179	5650.19	2150.19
0	25217	5660.19	2150.19
0	25257	5670.19	2150.19
0	25297	5680.19	2150.19
0	25937	5690.19	2740.19
0	25938	5690.19	2730.19
0	25939	5690.19	2720.19
0	25940	5690.19	2710.19
0	25941	5690.19	2700.19
0	25942	5690.19	2690.19
0	25943	5690.19	2680.19
0	25944	5690.19	2670.19
0	25945	5690.19	2660.19
0	25946	5690.19	2650.19
0	25947	5690.19	2640.19
0	25948	5690.19	2630.19
0	25949	5690.19	2620.19
0	25950	5690.19	2610.19
0	25951	5690.19	2600.19
0	25952	5690.19	2590.19
0	25953	5690.19	2580.19
0	25954	5690.19	2570.19
0	25955	5690.19	2560.19
0	25956	5690.19	2550.19
0	25957	5690.19	2540.19
0	25958	5690.19	2530.19
0	25959	5690.19	2520.19
0	25960	5690.19	2510.19
0	25961	5690.19	2500.19
0	25962	5690.19	2490.19
0	25963	5690.19	2480.19
0	25964	5690.19	2470.19
0	25965	5690.19	2460.19
0	25966	5690.19	2450.19
0	25967	5690.19	2440.19
0	25968	5690.19	2430.19
0	25969	5690.19	2420.19
0	25970	5690.19	2410.19
0	25971	5690.19	2400.19
0	25972	5690.19	2390.19
0	25973	5690.19	2380.19
0	25974	5690.19	2370.19
0	25975	5690.19	2360.19
0	25976	5690.19	2350.19
0	25977	5690.19	2340.19
0	25978	5690.19	2330.19
0	25979	5690.19	2320.19
0	25980	5690.19	2310.19
0	25981	5690.19	2300.19
0	25982	5690.19	2290.19
0	25983	5690.19	2280.19
0	25984	5690.19	2270.19
0	25985	5690.19	2260.19
0	25986	5690.19	2250.19
0	25987	5690.19	2150.19
0	26539	5700.19	2250.19
0	26540	5700.19	2150.19
0	26602	5710.19	2250.19
0	26603	5710.19	2150.19
0	26669	5750.19	2250.19
0	26707	5760.19	2250.19
0	26747	5770.19	2250.19
0	26787	5780.19	2250.19
0	27427	5790.19	2840.19
0	27428	5790.19	2830.19
0	27429	5790.19	2820.19
0	27430	5790.19	2810.19
0	27431	5790.19	2800.19
0	27432	5790.19	2790.19
0	27433	5790.19	2780.19
0	27434	5790.19	2770.19
0	27435	5790.19	2760.19
0	27436	5790.19	2750.19
0	27437	5790.19	2740.19
0	27438	5790.19	2730.19
0	27439	5790.19	2720.19
0	27440	5790.19	2710.19
0	27441	5790.19	2700.19
0	27442	5790.19	2690.19
0	27443	5790.19	2680.19
0	27444	5790.19	2670.19
0	27445	5790.19	2660.19
0	27446	5790.19	2650.19
0	27447	5790.19	2640.19
0	27448	5790.19	2630.19
0	27449	5790.19	2620.19
0	27450	5790.19	2610.19
0	27451	5790.19	2600.19
0	27452	5790.19	2590.19
0	27453	5790.19	2580.19
0	27454	5790.19	2570.19
0	27455	5790.19	2560.19
0	27456	5790.19	2550.19
0	27457	5790.19	2540.19
0	27458	5790.19	2530.19
0	27459	5790.19	2520.19
0	27460	5790.19	2510.19
0	27461	5790.19	2500.19
0	27462	5790.19	2490.19
0	27463	5790.19	2480.19
0	27464	5790.19	2470.19
0	27465	5790.19	2460.19
0	27466	5790.19	2450.19
0	27467	5790.19	2440.19
0	27468	5790.19	2430.19
0	27469	5790.19	2420.19
0	27470	5790.19	2410.19
0	27471	5790.19	2400.19
0	27472	5790.19	2390.19
0	27473	5790.19	2380.19
0	27474	5790.19	2370.19
0	27475	5790.19	2360.19
0	27476	5790.19	2350.19
0	27477	5790.19	2250.19
0	28029	5800.19	2350.19
0	28030	5800.19	2250.19
0	28092	5810.19	2350.19
0	28093	5810.19	2250.19
0	28153	5850.19	2350.19
0	28191	5860.19	2350.19
0	28229	5870.19	2350.19
0	28267	5880.19	2350.19
0	28905	5890.19	2940.19
0	28906	5890.19	2930.19
0	28907	5890.19	2920.19
0	28908	5890.19	2910.19
0	28909	5890.19	2900.19
0	28910	5890.19	2890.19
0	28911	5890.19	2880.19
0	28912	5890.19	2870.19
0	28913	5890.19	2860.19
0	28914	5890.19	2850.19
0	28915	5890.19	2840.19
0	28916	5890.19	2830.19
0	28917	5890.19	2820.19
0	28918	5890.19	2810.19
0	28919	5890.19	2800.19
0	28920	5890.19	2790.19
0	28921	5890.19	2780.19
0	28922	5890.19	2770.19
0	28923	5890.19	2760.19
0	28924	5890.19	2750.19
0	28925	5890.19	2740.19
0	28926	5890.19	2730.19
0	28927	5890.19	2720.19
0	28928	5890.19	2710.19
0	28929	5890.19	2700.19
0	28930	5890.19	2690.19
0	28931	5890.19	2680.19
0	28932	5890.19	2670.19
0	28933	5890.19	2660.19
0	28934	5890.19	2650.19
0	28935	5890.19	2640.19
0	28936	5890.19	2630.19
0	28937	5890.19	2620.19
0	28938	5890.19	2610.19
0	28939	5890.19	2600.19
0	28940	5890.19	2590.19
0	28941	5890.19	2580.19
0	28942	5890.19	2570.19
0	28943	5890.19	2560.19
0	28944	5890.19	2550.19
0	28945	5890.19	2540.19
0	28946	5890.19	2530.19
0	28947	5890.19	2520.19
0	28948	5890.19	2510.19
0	28949	5890.19	2500.19
0	28950	5890.19	2490.19
0	28951	5890.19	2480.19
0	28952	5890.19	2470.19
0	28953	5890.19	2460.19
0	28954	5890.19	2450.19
0	28955	5890.19	2350.19
0	29505	5900.19	2450.19
0	29506	5900.19	2350.19
0	29566	5910.19	2450.19
0	29567	5910.19	2350.19
0	29627	5950.19	2450.19
0	29665	5960.19	2450.19
0	29703	5970.19	2450.19
0	29741	5980.19	2450.19
0	30379	5990.19	3040.19
0	30380	5990.19	3030.19
0	30381	5990.19	3020.19
0	30382	5990.19	3010.19
0	30383	5990.19	3000.19
0	30384	5990.19	2990.19
0	30385	5990.19	2980.19
0	30386	5990.19	2970.19
0	30387	5990.19	2960.19
0	30388	5990.19	2950.19
0	30389	5990.19	2940.19
0	30390	5990.19	2930.19
0	30391	5990.19	2920.19
0	30392	5990.19	2910.19
0	30393	5990.19	2900.19
0	30394	5990.19	2890.19
0	30395	5990.19	2880.19
0	30396	5990.19	2870.19
0	30397	5990.19	2860.19
0	30398	5990.19	2850.19
0	30399	5990.19	2840.19
0	30400	5990.19	2830.19
0	30401	5990.19	2820.19
0	30402	5990.19	2810.19
0	30403	5990.19	2800.19
0	30404	5990.19	2790.19
0	30405	5990.19	2780.19
0	30406	5990.19	2770.19
0	30407	5990.19	2760.19
0	30408	5990.19	2750.19
0	30409	5990.19	2740.19
0	30410	5990.19	2730.19
0	30411	5990.19	2720.19
0	30412	5990.19	2710.19
0	30413	5990.19	2700.19
0	30414	5990.19	2690.19
0	30415	5990.19	2680.19
0	30416	5990.19	2670.19
0	30417	5990.19	2660.19
0	30418	5990.19	2650.19
0	30419	5990.19	2640.19
0	30420	5990.19	2630.19
0	30421	5990.19	2620.19
0	30422	5990.19	2610.19
0	30423	5990.19	2600.19
0	30424	5990.19	2590.19
0	30425	5990.19	2580.19
0	30426	5990.19	2570.19
0	30427	5990.19	2560.19
0	30428	5990.19	2550.19
0	30429	5990.19	2450.19
0	30979	6000.19	2550.19
0	30980	6000.19	2450.19
0	31040	6010.19	2550.19
0	31041	6010.19	2450.19
0	31101	6050.19	2550.19
0	31139	6060.19	2550.19
0	31177	6070.19	2550.19
0	31215	6080.19	2550.19
0	31853	6090.19	3140.19
0	31854	6090.19	3130.19
0	31855	6090.19	3120.19
0	31856	6090.19	3110.19
0	31857	6090.19	3100.19
0	31858	6090.19	3090.19
0	31859	6090.19	3080.19
0	31860	6090.19	3070.19
0	31861	6090.19	3060.19
0	31862	6090.19	3050.19
0	31863	6090.19	3040.19
0	31864	6090.19	3030.19
0	31865	6090.19	3020.19
0	31866	6090.19	3010.19
0	31867	6090.19	3000.19
0	31868	6090.19	2990.19
0	31869	6090.19	2980.19
0	31870	6090.19	2970.19
0	31871	6090.19	2960.19
0	31872	6090.19	2950.19
0	31873	6090.19	2940.19
0	31874	6090.19	2930.19
0	31875	6090.19	2920.19
0	31876	6090.19	2910.19
0	31877	6090.19	2900.19
0	31878	6090.19	2890.19
0	31879	6090.19	2880.19
0	31880	6090.19	2870.19
0	31881	6090.19	2860.19
0	31882	6090.19	2850.19
0	31883	6090.19	2840.19
0	31884	6090.19	2830.19
0	31885	6090.19	2820.19
0	31886	6090.19	2810.19
0	31887	6090.19	2800.19
0	31888	6090.19	2790.19
0	31889	6090.19	2780.19
0	31890	6090.19	2770.19
0	31891	6090.19	2760.19
0	31892	6090.19	2750.19
0	31893	6090.19	2740.19
0	31894	6090.19	2730.19
0	31895	6090.19	2720.19
0	31896	6090.19	2710.19
0	31897	6090.19	2700.19
0	31898	6090.19	2690.19
0	31899	6090.19	2680.19
0	31900	6090.19	2670.19
0	31901	6090.19	2660.19
0	31902	6090.19	2650.19
0	31903	6090.19	2550.19
0	32453	6100.19	2650.19
0	32454	6100.19	2550.19
0	32514	6110.19	2650.19
0	32515	6110.19	2550.19
0	32575	6150.19	2650.19
0	32613	6160.19	2650.19
0	32651	6170.19	2650.19
0	32689	6180.19	2650.19
0	33327	6190.19	3240.19
0	33328	6190.19	3230.19
0	33329	6190.19	3220.19
0	33330	6190.19	3210.19
0	33331	6190.19	3200.19
0	33332	6190.19	3190.19
0	33333	6190.19	3180.19
0	33334	6190.19	3170.19
0	33335	6190.19	3160.19
0	33336	6190.19	3150.19
0	33337	6190.19	3140.19
0	33338	6190.19	3130.19
0	33339	6190.19	3120.19
0	33340	6190.19	3110.19
0	33341	6190.19	3100.19
0	33342	6190.19	3090.19
0	33343	6190.19	3080.19
0	33344	6190.19	3070.19
0	33345	6190.19	3060.19
0	33346	6190.19	3050.19
0	33347	6190.19	3040.19
0	33348	6190.19	3030.19
0	33349	6190.19	3020.19
0	33350	6190.19	3010.19
0	33351	6190.19	3000.19
0	33352	6190.19	2990.19
0	33353	6190.19	2980.19
0	33354	6190.19	2970.19
0	33355	6190.19	2960.19
0	33356	6190.19	2950.19
0	33357	6190.19	2940.19
0	33358	6190.19	2930.19
0	33359	6190.19	2920.19
0	33360	6190.19	2910.19
0	33361	6190.19	2900.19
0	33362	6190.19	2890.19
0	33363	6190.19	2880.19
0	33364	6190.19	2870.19
0	33365	6190.19	2860.19
0	33366	6190.19	2850.19
0	33367	6190.19	2840.19
0	33368	6190.19	2830.19
0	33369	6190.19	2820.19
0	33370	6190.19	2810.19
0	33371	6190.19	2800.19
0	33372	6190.19	2790.19
0	33373	6190.19	2780.19
0	33374	6190.19	2770.19
0	33375	6190.19	2760.19
0	33376	6190.19	2750.19
0	33377	6190.19	2650.19
0	33927	6200.19	2750.19
0	33928	6200.19	2650.19
0	33988	6210.19	2750.19
0	33989	6210.19	2650.19
0	34049	6250.19	2750.19
0	34087	6260.19	2750.19
0	34125	6270.19	2750.19
0	34163	6280.19	2750.19
0	34801	6290.19	3340.19
0	34802	6290.19	3330.19
0	34803	6290.19	3320.19
0	34804	6290.19	3310.19
0	34805	6290.19	3300.19
0	34806	6290.19	3290.19
0	34807	6290.19	3280.19
0	34808	6290.19	3270.19
0	34809	6290.19	3260.19
0	34810	6290.19	3250.19
0	34811	6290.19	3240.19
0	34812	6290.19	3230.19
0	34813	6290.19	3220.19
0	34814	6290.19	3210.19
0	34815	6290.19	3200.19
0	34816	6290.19	3190.19
0	34817	6290.19	3180.19
0	34818	6290.19	3170.19
0	34819	6290.19	3160.19
0	34820	6290.19	3150.19
0	34821	6290.19	3140.19
0	34822	6290.19	3130.19
0	34823	6290.19	3120.19
0	34824	6290.19	3110.19
0	34825	6290.19	3100.19
0	34826	6290.19	3090.19
0	34827	6290.19	3080.19
0	34828	6290.19	3070.19
0	34829	6290.19	3060.19
0	34830	6290.19	3050.19
0	34831	6290.19	3040.19
0	34832	6290.19	3030.19
0	34833	6290.19	3020.19
0	34834	6290.19	3010.19
0	34835	6290.19	3000.19
0	34836	6290.19	2990.19
0	34837	6290.19	2980.19
0	34838	6290.19	2970.19
0	34839	6290.19	2960.19
0	34840	6290.19	2950.19
0	34841	6290.19	2940.19
0	34842	6290.19	2930.19
0	34843	6290.19	2920.19
0	34844	6290.19	2910.19
0	34845	6290.19	2900.19
0	34846	6290.19	2890.19
0	34847	6290.19	2880.19
0	34848	6290.19	2870.19
0	34849	6290.19	2860.19
0	34850	6290.19	2850.19
0	34851	6290.19	2750.19
0	35401	6300.19	2850.19
0	35402	6300.19	2750.19
0	35462	6310.19	2850.19
0	35463	6310.19	2750.19
0	35523	6350.19	2850.19
0	35561	6360.19	2850.19
0	35599	6370.19	2850.19
0	35637	6380.19	2850.19
0	36275	6390.19	3440.19
0	36276	6390.19	3430.19
0	36277	6390.19	3420.19
0	36278	6390.19	3410.19
0	36279	6390.19	3400.19
0	36280	6390.19	3390.19
0	36281	6390.19	3380.19
0	36282	6390.19	3370.19
0	36283	6390.19	3360.19
0	36284	6390.19	3350.19
0	36285	6390.19	3340.19
0	36286	6390.19	3330.19
0	36287	6390.19	3320.19
0	36288	6390.19	3310.19
0	36289	6390.19	3300.19
0	36290	6390.19	3290.19
0	36291	6390.19	3280.19
0	36292	6390.19	3270.19
0	36293	6390.19	3260.19
0	36294	6390.19	3250.19
0	36295	6390.19	3240.19
0	36296	6390.19	3230.19
0	36297	6390.19	3220.19
0	36298	6390.19	3210.19
0	36299	6390.19	3200.19
0	36300	6390.19	3190.19
0	36301	6390.19	3180.19
0	36302	6390.19	3170.19
0	36303	6390.19	3160.19
0	36304	6390.19	3150.19
0	36305	6390.19	3140.19
0	36306	6390.19	3130.19
0	36307	6390.19	3120.19
0	36308	6390.19	3110.19
0	36309	6390.19	3100.19
0	36310	6390.19	3090.19
0	36311	6390.19	3080.19
0	36312	6390.19	3070.19
0	36313	6390.19	3060.19
0	36314	6390.19	3050.19
0	36315	6390.19	3040.19
0	36316	6390.19	3030.19
0	36317	6390.19	3020.19
0	36318	6390.19	3010.19
0	36319	6390.19	3000.19
0	36320	6390.19	2990.19
0	36321	6390.19	2980.19
0	36322	6390.19	2970.19
0	36323	6390.19	2960.19
0	36324	6390.19	2950.19
0	36325	6390.19	2850.19
0	36875	6400.19	2950.19
0	36876	6400.19	2850.19
0	36936	6410.19	2950.19
0	36937	6410.19	2850.19
0	36997	6450.19	2950.19
0	37035	6460.19	2950.19
0	37073	6470.19	2950.19
0	37111	6480.19	2950.19
0	37749	6490.19	3540.19
0	37750	6490.19	3530.19
0	37751	6490.19	3520.19
0	37752	6490.19	3510.19
0	37753	6490.19	3500.19
0	37754	6490.19	3490.19
0	37755	6490.19	3480.19
0	37756	6490.19	3470.19
0	37757	6490.19	3460.19
0	37758	6490.19	3450.19
0	37759	6490.19	3440.19
0	37760	6490.19	3430.19
0	37761	6490.19	3420.19
0	37762	6490.19	3410.19
0	37763	6490.19	3400.19
0	37764	6490.19	3390.19
0	37765	6490.19	3380.19
0	37766	6490.19	3370.19
0	37767	6490.19	3360.19
0	37768	6490.19	3350.19
0	37769	6490.19	3340.19
0	37770	6490.19	3330.19
0	37771	6490.19	3320.19
0	37772	6490.19	3310.19
0	37773	6490.19	3300.19
0	37774	6490.19	3290.19
0	37775	6490.19	3280.19
0	37776	6490.19	3270.19
0	37777	6490.19	3260.19
0	37778	6490.19	3250.19
0	37779	6490.19	3240.19
0	37780	6490.19	3230.19
0	37781	6490.19	3220.19
0	37782	6490.19	3210.19
0	37783	6490.19	3200.19
0	37784	6490.19	3190.19
0	37785	6490.19	3180.19
0	37786	6490.19	3170.19
0	37787	6490.19	3160.19
0	37788	6490.19	3150.19
0	37789	6490.19	3140.19
0	37790	6490.19	3130.19
0	37791	6490.19	3120.19
0	37792	6490.19	3110.19
0	37793	6490.19	3100.19
0	37794	6490.19	3090.19
0	37795	6490.19	3080.19
0	37796	6490.19	3070.19
0	37797	6490.19	3060.19
0	37798	6490.19	3050.19
0	37799	6490.19	2950.19
0	38349	6500.19	3050.19
0	38350	6500.19	2950.19
0	38410	6510.19	3050.19
0	38411	6510.19	2950.19
0	38471	6550.19	3050.19
0	38509	6560.19	3050.19
0	38547	6570.19	3050.19
0	38585	6580.19	3050.19
0	39223	6590.19	3640.19
0	39224	6590.19	3630.19
0	39225	6590.19	3620.19
0	39226	6590.19	3610.19
0	39227	6590.19	3600.19
0	39228	6590.19	3590.19
0	39229	6590.19	3580.19
0	39230	6590.19	3570.19
0	39231	6590.19	3560.19
0	39232	6590.19	3550.19
0	39233	6590.19	3540.19
0	39234	6590.19	3530.19
0	39235	6590.19	3520.19
0	39236	6590.19	3510.19
0	39237	6590.19	3500.19
0	39238	6590.19	3490.19
0	39239	6590.19	3480.19
0	39240	6590.19	3470.19
0	39241	6590.19	3460.19
0	39242	6590.19	3450.19
0	39243	6590.19	3440.19
0	39244	6590.19	3430.19
0	39245	6590.19	3420.19
0	39246	6590.19	3410.19
0	39247	6590.19	3400.19
0	39248	6590.19	3390.19
0	39249	6590.19	3380.19
0	39250	6590.19	3370.19
0	39251	6590.19	3360.19
0	39252	6590.19	3350.19
0	39253	6590.19	3340.19
0	39254	6590.19	3330.19
0	39255	6590.19	3320.19
0	39256	6590.19	3310.19
0	39257	6590.19	3300.19
0	39258	6590.19	3290.19
0	39259	6590.19	3280.19
0	39260	6590.19	3270.19
0	39261	6590.19	3260.19
0	39262	6590.19	3250.19
0	39263	6590.19	3240.19
0	39264	6590.19	3230.19
0	39265	6590.19	3220.19
0	39266	6590.19	3210.19
0	39267	6590.19	3200.19
0	39268	6590.19	3190.19
0	39269	6590.19	3180.19
0	39270	6590.19	3170.19
0	39271	6590.19	3160.19
0	39272	6590.19	3150.19
0	39273	6590.19	3050.19
0	39823	6600.19	3150.19
0	39824	6600.19	3050.19
0	39884	6610.19	3150.19
0	39885	6610.19	3050.19
0	39945	6650.19	3150.19
0	39983	6660.19	3150.19
0	40021	6670.19	3150.19
0	40059	6680.19	3150.19
0	40697	6690.19	3740.19
0	40698	6690.19	3730.19
0	40699	6690.19	3720.19
0	40700	6690.19	3710.19
0	40701	6690.19	3700.19
0	40702	6690.19	3690.19
0	40703	6690.19	3680.19
0	40704	6690.19	3670.19
0	40705	6690.19	3660.19
0	40706	6690.19	3650.19
0	40707	6690.19	3640.19
0	40708	6690.19	3630.19
0	40709	6690.19	3620.19
0	40710	6690.19	3610.19
0	40711	6690.19	3600.19
0	40712	6690.19	3590.19
0	40713	6690.19	3580.19
0	40714	6690.19	3570.19
0	40715	6690.19	3560.19
0	40716	6690.19	3550.19
0	40717	6690.19	3540.19
0	40718	6690.19	3530.19
0	40719	6690.19	3520.19
0	40720	6690.19	3510.19
0	40721	6690.19	3500.19
0	40722	6690.19	3490.19
0	40723	6690.19	3480.19
0	40724	6690.19	3470.19
0	40725	6690.19	3460.19
0	40726	6690.19	3450.19
0	40727	6690.19	3440.19
0	40728	6690.19	3430.19
0	40729	6690.19	3420.19
0	40730	6690.19	3410.19
0	40731	6690.19	3400.19
0	40732	6690.19	3390.19
0	40733	6690.19	3380.19
0	40734	6690.19	3370.19
0	40735	6690.19	3360.19
0	40736	6690.19	3350.19
0	40737	6690.19	3340.19
0	40738	6690.19	3330.19
0	40739	6690.19	3320.19
0	40740	6690.19	3310.19
0	40741	6690.19	3300.19
0	40742	6690.19	3290.19
0	40743	6690.19	3280.19
0	40744	6690.19	3270.19
0	40745	6690.19	3260.19
0	40746	6690.19	3250.19
0	40747	6690.19	3150.19
0	41297	6700.19	3250.19
0	41298	6700.19	3150.19
0	41358	6710.19	3250.19
0	41359	6710.19	3150.19
0	41419	6750.19	3250.19
0	41457	6760.19	3250.19
0	41495	6770.19	3250.19
0	41533	6780.19	3250.19
0	42171	6790.19	3840.19
0	42172	6790.19	3830.19
0	42173	6790.19	3820.19
0	42174	6790.19	3810.19
0	42175	6790.19	3800.19
0	42176	6790.19	3790.19
0	42177	6790.19	3780.19
0	42178	6790.19	3770.19
0	42179	6790.19	3760.19
0	42180	6790.19	3750.19
0	42181	6790.19	3740.19
0	42182	6790.19	3730.19
0	42183	6790.19	3720.19
0	42184	6790.19	3710.19
0	42185	6790.19	3700.19
0	42186	6790.19	3690.19
0	42187	6790.19	3680.19
0	42188	6790.19	3670.19
0	42189	6790.19	3660.19
0	42190	6790.19	3650.19
0	42191	6790.19	3640.19
0	42192	6790.19	3630.19
0	42193	6790.19	3620.19
0	42194	6790.19	3610.19
0	42195	6790.19	3600.19
0	42196	6790.19	3590.19
0	42197	6790.19	3580.19
0	42198	6790.19	3570.19
0	42199	6790.19	3560.19
0	42200	6790.19	3550.19
0	42201	6790.19	3540.19
0	42202	6790.19	3530.19
0	42203	6790.19	3520.19
0	42204	6790.19	3510.19
0	42205	6790.19	3500.19
0	42206	6790.19	3490.19
0	42207	6790.19	3480.19
0	42208	6790.19	3470.19
0	42209	6790.19	3460.19
0	42210	6790.19	3450.19
0	42211	6790.19	3440.19
0	42212	6790.19	3430.19
0	42213	6790.19	3420.19
0	42214	6790.19	3410.19
0	42215	6790.19	3400.19
0	42216	6790.19	3390.19
0	42217	6790.19	3380.19
0	42218	6790.19	3370.19
0	42219	6790.19	3360.19
0	42220	6790.19	3350.19
0	42221	6790.19	3250.19
0	42771	6800.19	3350.19
0	42772	6800.19	3250.19
0	42832	6810.19	3350.19
0	42833	6810.19	3250.19
0	42893	6850.19	3350.19

