version 2
run General-0-20241228-14:41:22-5347
attr configname General
attr datetime 20241228-14:41:22
attr experiment General
attr inifile shaw.ini
attr iterationvars ""
attr iterationvarsf ""
attr measurement ""
attr network src.dtnsim
attr processid 5347
attr repetition 0
attr replication #0
attr resultdir results
attr runnumber 0
attr seedset 0
param dtnsim.node[4..5].com.packetLoss 0.1
param dtnsim.nodesNumber 6
param dtnsim.node[1].icon "\"receiverdish\""
param dtnsim.node[2..5].icon "\"satellite\""
param dtnsim.node[6].icon "\"receiverdish\""
param dtnsim.node[*].dtn.routing "\"cgrModelRev17\""
param dtnsim.central.contactsFile "\"contactPlan/shaw_contact.txt\""
param dtnsim.node[*].dtn.routingType "\"routeListType:allPaths-firstEnding,volumeAware:allContacts,extensionBlock:on,contactPlan:global\""
param dtnsim.node[*].dtn.printRoutingDebug true
param dtnsim.node[1].app.enable true
param dtnsim.node[*].app.custodyTransfer true
param dtnsim.node[1].app.bundlesNumber "\"1000\""
param dtnsim.node[1].app.start "\"0\""
param dtnsim.node[1].app.destinationEid "\"6\""
param dtnsim.node[1].app.size "\"1500\""
param dtnsim.node[1].app.interval 1

vector 0 dtnsim.node[6].app appBundleReceivedDelayvec:vector ETV
attr interpolationmode none
attr source appBundleReceivedDelay
attr title "appBundleReceivedDelayvec, vector"
0	2235	79.1	79.1
0	2236	79.1	78.1
0	2237	79.1	77.1
0	2238	79.1	75.1
0	2239	79.1	74.1
0	2240	79.1	73.1
0	2241	79.1	70.1
0	2242	79.1	69.1
0	2243	79.1	68.1
0	2244	79.1	67.1
0	2245	79.1	66.1
0	2246	79.1	65.1
0	2247	79.1	64.1
0	2248	79.1	63.1
0	2249	79.1	62.1
0	2250	79.1	61.1
0	2251	79.1	60.1
0	2252	79.1	59.1
0	2253	79.1	58.1
0	2254	79.1	56.1
0	2255	79.1	55.1
0	2256	79.1	54.1
0	2257	79.1	53.1
0	2258	79.1	52.1
0	2259	79.1	51.1
0	2260	79.1	50.1
0	2261	79.1	49.1
0	2262	79.1	48.1
0	2263	79.1	46.1
0	2264	79.1	45.1
0	2265	79.1	43.1
0	2266	79.1	42.1
0	2267	79.1	41.1
0	2268	79.1	39.1
0	2269	79.1	38.1
0	2270	79.1	37.1
0	2271	79.1	36.1
0	2272	79.1	35.1
0	2273	79.1	34.1
0	2274	79.1	33.1
0	2275	79.1	32.1
0	2276	79.1	31.1
0	2277	79.1	30.1
0	2278	79.1	29.1
0	2279	79.1	28.1
0	2280	79.1	26.1
0	2281	79.1	25.1
0	2282	79.1	24.1
0	2283	79.1	22.1
0	2284	79.1	21.1
0	2285	79.1	20.1
0	2286	79.1	19.1
0	2287	79.1	18.1
0	2288	79.1	17.1
0	2289	79.1	16.1
0	2290	79.1	15.1
0	2291	79.1	14.1
0	2292	79.1	13.1
0	2293	79.1	12.1
0	2294	79.1	11.1
0	2295	79.1	10.1
0	2296	79.1	9.1
0	2297	79.1	8.1
0	2298	79.1	7.1
0	2299	79.1	6.1
0	2300	79.1	5.1
0	2301	79.1	4.1
0	2302	79.1	3.1
0	2303	79.1	2.1
0	2668	79.3	1.3
0	2703	80.3	1.3
0	2734	81.3	1.3
0	4227	125.2	44.2
0	4228	125.2	43.2
0	4229	125.2	41.2
0	4230	125.2	40.2
0	4231	125.2	39.2
0	4232	125.2	38.2
0	4233	125.2	37.2
0	4234	125.2	36.2
0	4235	125.2	35.2
0	4236	125.2	34.2
0	4237	125.2	33.2
0	4238	125.2	32.2
0	4239	125.2	31.2
0	4240	125.2	30.2
0	4241	125.2	29.2
0	4242	125.2	28.2
0	4243	125.2	27.2
0	4244	125.2	26.2
0	4245	125.2	25.2
0	4246	125.2	24.2
0	4247	125.2	21.2
0	4248	125.2	20.2
0	4249	125.2	19.2
0	4250	125.2	18.2
0	4251	125.2	17.2
0	4252	125.2	16.2
0	4253	125.2	15.2
0	4254	125.2	14.2
0	4255	125.2	13.2
0	4256	125.2	12.2
0	4257	125.2	10.2
0	4258	125.2	8.2
0	4259	125.2	7.2
0	4260	125.2	6.2
0	4261	125.2	5.2
0	4262	125.2	4.2
0	4263	125.2	3.2
0	4264	125.2	2.2
0	4474	126.3	1.3
0	4503	127.3	1.3
0	4532	128.3	1.3
0	4562	129.3	1.3
0	4604	131.3	1.3
0	4632	132.3	1.3
0	4660	133.3	1.3
0	5294	154.1	20.1
0	6068	176.2	106.2
0	6069	176.2	105.2
0	6070	176.2	102.2
0	6071	176.2	173.2
0	6072	176.2	171.2
0	6073	176.2	169.2
0	6074	176.2	168.2
0	6075	176.2	154.2
0	6076	176.2	144.2
0	6077	176.2	141.2
0	6078	176.2	137.2
0	6079	176.2	128.2
0	6080	176.2	124.2
0	6081	176.2	123.2
0	6082	176.2	119.2
0	6453	179.2	160.2
0	6454	179.2	138.2
0	6455	179.2	136.2
0	6456	179.2	124.2
0	6457	179.2	117.2
0	8724	204.1	69.1
0	8725	204.1	68.1
0	8726	204.1	67.1
0	8727	204.1	66.1
0	8728	204.1	65.1
0	8729	204.1	64.1
0	8730	204.1	63.1
0	8731	204.1	62.1
0	8732	204.1	61.1
0	8733	204.1	60.1
0	8734	204.1	59.1
0	8735	204.1	58.1
0	8736	204.1	57.1
0	8737	204.1	56.1
0	8738	204.1	55.1
0	8739	204.1	53.1
0	8740	204.1	52.1
0	8741	204.1	51.1
0	8742	204.1	50.1
0	8743	204.1	49.1
0	8744	204.1	48.1
0	8745	204.1	47.1
0	8746	204.1	46.1
0	8747	204.1	44.1
0	8748	204.1	43.1
0	8749	204.1	42.1
0	8750	204.1	41.1
0	8751	204.1	40.1
0	8752	204.1	39.1
0	8753	204.1	38.1
0	8754	204.1	37.1
0	8755	204.1	36.1
0	8756	204.1	35.1
0	8757	204.1	34.1
0	8758	204.1	33.1
0	8759	204.1	32.1
0	8760	204.1	31.1
0	8761	204.1	30.1
0	8762	204.1	29.1
0	8763	204.1	28.1
0	8764	204.1	27.1
0	8765	204.1	26.1
0	8766	204.1	24.1
0	8767	204.1	23.1
0	8768	204.1	20.1
0	8769	204.1	19.1
0	8770	204.1	18.1
0	8771	204.1	17.1
0	8772	204.1	16.1
0	8773	204.1	15.1
0	8774	204.1	14.1
0	8775	204.1	13.1
0	8776	204.1	12.1
0	8777	204.1	11.1
0	8778	204.1	10.1
0	8779	204.1	9.1
0	8780	204.1	8.1
0	8781	204.1	7.1
0	8782	204.1	6.1
0	8805	204.2	1.2
0	8881	206.2	1.2
0	9069	208.4	1.4
0	9070	208.4	2.4
0	9100	209.4	1.4
0	9662	213.4	4.4
0	9663	213.4	2.4
0	9664	213.4	1.4
0	9743	214.4	1.4
0	9806	215.4	1.4
0	9865	216.4	1.4
0	9923	217.4	1.4
0	9944	218.4	1.4
0	10352	228.2	126.2
0	10353	228.2	125.2
0	10354	228.2	114.2
0	10355	228.2	112.2
0	10429	228.3	10.3
0	10430	228.3	9.3
0	10431	228.3	8.3
0	10432	228.3	7.3
0	10433	228.3	6.3
0	10434	228.3	5.3
0	10435	228.3	4.3
0	10436	228.3	3.3
0	10437	228.3	2.3
0	10438	228.3	1.3
0	10520	229.3	1.3
0	10572	230.3	101.3
0	10573	230.3	1.3
0	10623	231.3	1.3
0	10671	232.3	1.3
0	10706	233.3	1.3
0	10740	234.3	1.3
0	10927	235.2	142.2
0	10928	235.2	136.2
0	10929	235.2	124.2
0	10930	235.2	116.2
0	10931	235.2	112.2
0	10932	235.2	105.2
0	10933	235.2	104.2
0	10942	235.3	1.3
0	10974	236.3	1.3
0	11075	240.3	1.3
0	11107	241.3	1.3
0	11136	242.3	1.3
0	11410	254.4	12.4
0	11411	254.4	9.4
0	11412	254.4	8.4
0	11413	254.4	7.4
0	11414	254.4	6.4
0	11415	254.4	5.4
0	11416	254.4	4.4
0	11417	254.4	2.4
0	11418	254.4	1.4
0	11447	255.4	1.4
0	11476	256.4	1.4
0	11508	257.4	1.4
0	11538	258.4	1.4
0	11568	259.4	1.4
0	11860	261.4	1.4
0	11918	263.4	1.4
0	12291	276.2	202.2
0	12292	276.2	224.2
0	15045	325.1	293.1
0	15046	325.1	273.1
0	15047	325.1	269.1
0	15048	325.1	321.1
0	15049	325.1	267.1
0	15050	325.1	282.1
0	15051	325.1	61.1
0	15052	325.1	60.1
0	15053	325.1	59.1
0	15054	325.1	58.1
0	15055	325.1	57.1
0	15056	325.1	56.1
0	15057	325.1	55.1
0	15058	325.1	54.1
0	15059	325.1	53.1
0	15060	325.1	52.1
0	15061	325.1	51.1
0	15062	325.1	50.1
0	15063	325.1	49.1
0	15064	325.1	48.1
0	15065	325.1	47.1
0	15066	325.1	46.1
0	15067	325.1	44.1
0	15068	325.1	43.1
0	15069	325.1	42.1
0	15070	325.1	41.1
0	15071	325.1	40.1
0	15072	325.1	39.1
0	15073	325.1	38.1
0	15074	325.1	37.1
0	15075	325.1	36.1
0	15076	325.1	35.1
0	15077	325.1	34.1
0	15078	325.1	33.1
0	15079	325.1	31.1
0	15080	325.1	30.1
0	15081	325.1	29.1
0	15082	325.1	28.1
0	15083	325.1	27.1
0	15084	325.1	26.1
0	15085	325.1	124.1
0	15086	325.1	24.1
0	15087	325.1	23.1
0	15088	325.1	183.1
0	15089	325.1	165.1
0	15090	325.1	164.1
0	15091	325.1	155.1
0	15092	325.1	22.1
0	15093	325.1	21.1
0	15094	325.1	20.1
0	15095	325.1	19.1
0	15096	325.1	18.1
0	15097	325.1	118.1
0	15098	325.1	17.1
0	15099	325.1	16.1
0	15100	325.1	15.1
0	15101	325.1	14.1
0	15102	325.1	13.1
0	15103	325.1	115.1
0	15104	325.1	12.1
0	15105	325.1	11.1
0	15106	325.1	10.1
0	15107	325.1	110.1
0	15108	325.1	9.1
0	15109	325.1	322.1
0	15110	325.1	273.1
0	15111	325.1	175.1
0	15112	325.1	146.1
0	15113	325.1	143.1
0	15114	325.1	142.1
0	15115	325.1	128.1
0	15116	325.1	126.1
0	15117	325.1	125.1
0	15118	325.1	124.1
0	15119	325.1	123.1
0	15120	325.1	121.1
0	15121	325.1	8.1
0	15122	325.1	7.1
0	15123	325.1	6.1
0	15124	325.1	5.1
0	15184	325.3	4.3
0	15185	325.3	3.3
0	15186	325.3	2.3
0	15187	325.3	1.3
0	15233	326.3	1.3
0	15331	327.3	1.3
0	15390	328.2	245.2
0	15391	328.2	204.2
0	15414	328.3	1.3
0	15486	329.3	1.3
0	15536	330.3	201.3
0	15537	330.3	101.3
0	15538	330.3	1.3
0	16271	335.2	112.2
0	16272	335.2	206.2
0	16273	335.2	5.2
0	16274	335.2	4.2
0	16275	335.2	3.2
0	16276	335.2	2.2
0	16340	337.4	101.4
0	16377	338.4	101.4
0	16427	340.4	101.4
0	17500	355.1	115.1
0	17501	355.1	19.1
0	17502	355.1	18.1
0	17503	355.1	17.1
0	17504	355.1	16.1
0	17505	355.1	15.1
0	17506	355.1	13.1
0	17507	355.1	12.1
0	17508	355.1	11.1
0	17509	355.1	10.1
0	17510	355.1	9.1
0	17511	355.1	6.1
0	17512	355.1	4.1
0	17513	355.1	113.1
0	17514	355.1	106.1
0	17515	355.1	102.1
0	17564	355.4	101.4
0	17750	361.4	101.4
0	19057	383.2	28.2
0	19058	383.2	27.2
0	19059	383.2	26.2
0	19060	383.2	25.2
0	19061	383.2	24.2
0	19062	383.2	124.2
0	19063	383.2	23.2
0	19064	383.2	22.2
0	19065	383.2	139.2
0	19066	383.2	122.2
0	19568	429.1	270.1
0	19569	429.1	149.1
0	19570	429.1	136.1
0	19571	429.1	129.1
0	20902	431.3	69.3
0	20903	431.3	68.3
0	20904	431.3	67.3
0	20905	431.3	66.3
0	20906	431.3	65.3
0	20907	431.3	64.3
0	20908	431.3	63.3
0	20909	431.3	62.3
0	20910	431.3	61.3
0	20911	431.3	60.3
0	20912	431.3	59.3
0	20913	431.3	58.3
0	20914	431.3	56.3
0	20915	431.3	55.3
0	20916	431.3	52.3
0	20917	431.3	51.3
0	20918	431.3	50.3
0	20919	431.3	49.3
0	20920	431.3	48.3
0	20921	431.3	47.3
0	20922	431.3	46.3
0	20923	431.3	45.3
0	20924	431.3	44.3
0	20925	431.3	43.3
0	20926	431.3	42.3
0	20927	431.3	41.3
0	20928	431.3	40.3
0	20929	431.3	39.3
0	20930	431.3	38.3
0	20931	431.3	37.3
0	20932	431.3	36.3
0	20933	431.3	35.3
0	20934	431.3	34.3
0	20935	431.3	33.3
0	20936	431.3	32.3
0	20937	431.3	30.3
0	20938	431.3	29.3
0	20939	431.3	28.3
0	20940	431.3	27.3
0	20941	431.3	26.3
0	20942	431.3	25.3
0	20943	431.3	23.3
0	20944	431.3	20.3
0	20945	431.3	19.3
0	20946	431.3	18.3
0	20947	431.3	17.3
0	20948	431.3	16.3
0	20949	431.3	15.3
0	20950	431.3	14.3
0	20951	431.3	13.3
0	20952	431.3	12.3
0	20953	431.3	10.3
0	20954	431.3	9.3
0	20955	431.3	8.3
0	20956	431.3	6.3
0	20957	431.3	5.3
0	20958	431.3	4.3
0	20959	431.3	3.3
0	20960	431.3	2.3
0	20961	431.3	1.3
0	21549	435.1	212.1
0	21588	435.3	101.3
0	21994	436.2	380.2
0	21995	436.2	170.2
0	21996	436.2	164.2
0	21997	436.2	154.2
0	21998	436.2	147.2
0	21999	436.2	142.2
0	22000	436.2	138.2
0	22001	436.2	132.2
0	22002	436.2	129.2
0	22003	436.2	226.2
0	22004	436.2	254.2
0	22005	436.2	108.2
0	22006	436.2	5.2
0	22007	436.2	3.2
0	22008	436.2	213.2
0	22009	436.2	2.2
0	22115	436.3	101.3
0	22116	436.3	1.3
0	22409	437.3	1.3
0	22828	438.3	1.3
0	23476	440.4	204.4
0	23500	440.5	201.5
0	23564	441.3	1.3
0	23638	442.3	1.3
0	24980	477.1	134.1
0	24981	477.1	133.1
0	24982	477.1	136.1
0	24983	477.1	130.1
0	24984	477.1	128.1
0	24985	477.1	127.1
0	24986	477.1	125.1
0	24987	477.1	33.1
0	24988	477.1	32.1
0	24989	477.1	31.1
0	24990	477.1	29.1
0	24991	477.1	28.1
0	24992	477.1	27.1
0	24993	477.1	26.1
0	24994	477.1	25.1
0	24995	477.1	24.1
0	24996	477.1	23.1
0	24997	477.1	22.1
0	24998	477.1	21.1
0	24999	477.1	20.1
0	25000	477.1	19.1
0	25001	477.1	18.1
0	25002	477.1	17.1
0	25003	477.1	16.1
0	25004	477.1	14.1
0	25005	477.1	13.1
0	25006	477.1	12.1
0	25007	477.1	10.1
0	25008	477.1	11.1
0	25009	477.1	9.1
0	25010	477.1	8.1
0	25011	477.1	7.1
0	25012	477.1	5.1
0	25013	477.1	3.1
0	25014	477.1	2.1
0	25030	477.4	1.4
0	25137	483.3	128.3
0	25138	483.3	127.3
0	25710	502.1	25.1
0	25711	502.1	24.1
0	25712	502.1	23.1
0	25713	502.1	22.1
0	25714	502.1	148.1
0	25715	502.1	20.1
0	25716	502.1	18.1
0	25717	502.1	17.1
0	25718	502.1	16.1
0	25719	502.1	15.1
0	25720	502.1	14.1
0	26258	530.1	237.1
0	26467	531.3	168.3
0	26468	531.3	156.3
0	26469	531.3	146.3
0	26470	531.3	119.3
0	26471	531.3	102.3
0	26545	535.3	201.3
0	26594	536.2	242.2
0	28290	559.1	186.1
0	28291	559.1	185.1
0	28292	559.1	182.1
0	28293	559.1	181.1
0	28294	559.1	174.1
0	28295	559.1	159.1
0	28296	559.1	153.1
0	28297	559.1	152.1
0	28298	559.1	150.1
0	28299	559.1	149.1
0	28300	559.1	141.1
0	28301	559.1	139.1
0	28302	559.1	136.1
0	28303	559.1	135.1
0	28304	559.1	127.1
0	28305	559.1	503.1
0	28306	559.1	355.1
0	28307	559.1	231.1
0	28308	559.1	121.1
0	28309	559.1	120.1
0	28310	559.1	211.1
0	28311	559.1	70.1
0	28312	559.1	69.1
0	28313	559.1	68.1
0	28314	559.1	67.1
0	28315	559.1	65.1
0	28316	559.1	64.1
0	28317	559.1	63.1
0	28318	559.1	62.1
0	28319	559.1	61.1
0	28320	559.1	60.1
0	28321	559.1	59.1
0	28322	559.1	58.1
0	28323	559.1	57.1
0	28324	559.1	56.1
0	28325	559.1	55.1
0	28326	559.1	54.1
0	28327	559.1	53.1
0	28328	559.1	52.1
0	28329	559.1	51.1
0	28330	559.1	50.1
0	28331	559.1	49.1
0	28332	559.1	48.1
0	28333	559.1	47.1
0	28334	559.1	45.1
0	28335	559.1	44.1
0	28336	559.1	43.1
0	28337	559.1	42.1
0	28338	559.1	41.1
0	28339	559.1	40.1
0	28340	559.1	39.1
0	28341	559.1	38.1
0	28342	559.1	36.1
0	28343	559.1	35.1
0	28344	559.1	34.1
0	28345	559.1	33.1
0	28346	559.1	32.1
0	28347	559.1	31.1
0	28348	559.1	30.1
0	28349	559.1	182.1
0	28350	559.1	170.1
0	28351	559.1	152.1
0	28352	559.1	146.1
0	28353	559.1	131.1
0	28354	559.1	29.1
0	28355	559.1	28.1
0	28356	559.1	27.1
0	28357	559.1	26.1
0	28358	559.1	25.1
0	28359	559.1	24.1
0	28360	559.1	23.1
0	28361	559.1	22.1
0	28362	559.1	21.1
0	28363	559.1	20.1
0	28364	559.1	19.1
0	28365	559.1	18.1
0	28366	559.1	17.1
0	28367	559.1	15.1
0	28368	559.1	14.1
0	28369	559.1	13.1
0	28370	559.1	12.1
0	28371	559.1	11.1
0	28372	559.1	10.1
0	28373	559.1	9.1
0	28374	559.1	7.1
0	28375	559.1	6.1
0	28376	559.1	5.1
0	28377	559.1	4.1
0	28378	559.1	3.1
0	28379	559.1	2.1
0	28397	559.3	1.3
0	28428	560.3	1.3
0	28455	561.3	1.3
0	29817	562.3	1.3
0	30669	564.3	1.3
0	30745	565.3	118.3
0	30746	565.3	103.3
0	30747	565.3	1.3
0	30834	566.3	1.3
0	30907	567.3	1.3
0	30971	568.3	1.3
0	31031	569.3	1.3
0	31083	570.3	1.3
0	31152	572.3	101.3
0	31209	574.3	101.3
0	32180	577.1	234.1
0	32181	577.1	127.1
0	32182	577.1	109.1
0	32660	586.3	16.3
0	32661	586.3	15.3
0	32662	586.3	14.3
0	32663	586.3	13.3
0	32664	586.3	12.3
0	32665	586.3	11.3
0	32666	586.3	10.3
0	32667	586.3	9.3
0	32668	586.3	8.3
0	32669	586.3	7.3
0	32670	586.3	6.3
0	32671	586.3	5.3
0	32672	586.3	4.3
0	32673	586.3	3.3
0	32674	586.3	2.3
0	32675	586.3	1.3
0	32823	587.3	1.3
0	32865	588.3	1.3
0	32929	589.3	1.3
0	32979	590.2	109.2
0	32980	590.2	107.2
0	33004	590.3	1.3
0	33051	591.3	1.3
0	33092	592.3	1.3
0	33134	593.3	1.3
0	33172	594.3	1.3
0	33207	595.3	1.3
0	33242	596.3	1.3
0	33778	614.1	258.1
0	33961	625.1	148.1
0	33962	625.1	29.1
0	33963	625.1	28.1
0	33964	625.1	27.1
0	33965	625.1	26.1
0	33966	625.1	25.1
0	33967	625.1	24.1
0	33968	625.1	23.1
0	33969	625.1	22.1
0	33970	625.1	21.1
0	33971	625.1	20.1
0	33972	625.1	18.1
0	33973	625.1	17.1
0	33974	625.1	16.1
0	33975	625.1	15.1
0	33976	625.1	14.1
0	33977	625.1	13.1
0	33978	625.1	12.1
0	33979	625.1	11.1
0	33980	625.1	10.1
0	34680	639.3	23.3
0	34681	639.3	22.3
0	34682	639.3	20.3
0	34683	639.3	19.3
0	34684	639.3	18.3
0	34685	639.3	17.3
0	34686	639.3	16.3
0	34687	639.3	15.3
0	34688	639.3	13.3
0	34689	639.3	12.3
0	34690	639.3	11.3
0	34691	639.3	10.3
0	34692	639.3	9.3
0	34693	639.3	8.3
0	34694	639.3	6.3
0	34695	639.3	5.3
0	34696	639.3	4.3
0	34697	639.3	3.3
0	34698	639.3	2.3
0	34699	639.3	1.3
0	34726	640.3	1.3
0	34753	641.3	1.3
0	34783	642.3	1.3
0	34810	643.3	1.3
0	35096	644.3	1.3
0	35130	645.3	1.3
0	35383	648.4	1.4
0	35436	649.4	1.4
0	35524	651.3	1.3
0	35561	652.3	1.3
0	35598	653.3	1.3
0	35799	654.3	1.3
0	35911	655.3	1.3
0	35964	655.4	162.4
0	35965	655.4	142.4
0	35966	655.4	131.4
0	35967	655.4	122.4
0	35968	655.4	104.4
0	36009	656.3	1.3
0	36343	658.4	1.4
0	36523	659.1	252.1
0	36524	659.1	250.1
0	36525	659.1	249.1
0	36526	659.1	163.1
0	36527	659.1	157.1
0	36528	659.1	148.1
0	36529	659.1	139.1
0	36530	659.1	127.1
0	36531	659.1	112.1
0	36532	659.1	111.1
0	36533	659.1	105.1
0	36534	659.1	102.1
0	36669	659.4	1.4
0	36707	660.3	101.3
0	36745	661.3	101.3
0	36746	661.3	2.3
0	36747	661.3	1.3
0	36776	662.3	1.3
0	36809	663.3	101.3
0	36810	663.3	1.3
0	36841	664.3	1.3
0	36997	667.3	1.3
0	37054	668.3	1.3
0	37343	677.1	227.1
0	38565	717.1	246.1
0	38566	717.1	49.1
0	38567	717.1	48.1
0	38568	717.1	47.1
0	38569	717.1	46.1
0	38570	717.1	44.1
0	38571	717.1	42.1
0	38572	717.1	41.1
0	38573	717.1	40.1
0	38574	717.1	39.1
0	38575	717.1	38.1
0	38576	717.1	37.1
0	38577	717.1	35.1
0	38578	717.1	34.1
0	38579	717.1	33.1
0	38580	717.1	32.1
0	38581	717.1	31.1
0	38582	717.1	30.1
0	38583	717.1	29.1
0	38584	717.1	28.1
0	38585	717.1	27.1
0	38586	717.1	26.1
0	38587	717.1	25.1
0	38588	717.1	24.1
0	38589	717.1	23.1
0	38590	717.1	22.1
0	38591	717.1	21.1
0	38592	717.1	20.1
0	38593	717.1	111.1
0	38594	717.1	143.1
0	38595	717.1	142.1
0	38596	717.1	129.1
0	39003	725.2	129.2
0	39004	725.2	120.2
0	39005	725.2	114.2
0	40523	746.1	123.1
0	40524	746.1	120.1
0	40525	746.1	108.1
0	40526	746.1	48.1
0	40527	746.1	47.1
0	40528	746.1	46.1
0	40529	746.1	45.1
0	40530	746.1	44.1
0	40531	746.1	42.1
0	40532	746.1	40.1
0	40533	746.1	39.1
0	40534	746.1	34.1
0	40535	746.1	33.1
0	40536	746.1	32.1
0	40537	746.1	31.1
0	40538	746.1	30.1
0	40539	746.1	29.1
0	40540	746.1	28.1
0	40541	746.1	26.1
0	40542	746.1	25.1
0	40543	746.1	24.1
0	40544	746.1	22.1
0	40545	746.1	21.1
0	40546	746.1	20.1
0	40547	746.1	18.1
0	40548	746.1	17.1
0	40549	746.1	16.1
0	40550	746.1	14.1
0	40551	746.1	13.1
0	40552	746.1	12.1
0	40553	746.1	11.1
0	40554	746.1	10.1
0	40555	746.1	9.1
0	40556	746.1	128.1
0	40557	746.1	121.1
0	40558	746.1	120.1
0	40559	746.1	106.1
0	40560	746.1	6.1
0	40561	746.1	5.1
0	40562	746.1	4.1
0	40613	747.3	101.3
0	40916	753.4	101.4
0	40968	754.4	101.4
0	41019	755.3	212.3
0	41038	755.4	103.4
0	41083	756.4	103.4
0	41292	757.4	103.4
0	41305	757.5	264.5
0	41424	758.3	14.3
0	41425	758.3	13.3
0	41426	758.3	12.3
0	41427	758.3	11.3
0	41428	758.3	10.3
0	41429	758.3	8.3
0	41430	758.3	6.3
0	41431	758.3	5.3
0	41432	758.3	4.3
0	41433	758.3	3.3
0	41434	758.3	2.3
0	41435	758.3	1.3
0	41555	759.3	1.3
0	43211	787.1	27.1
0	43212	787.1	26.1
0	43213	787.1	23.1
0	43607	789.2	24.2
0	43608	789.2	23.2
0	43609	789.2	22.2
0	43610	789.2	21.2
0	43611	789.2	20.2
0	43612	789.2	19.2
0	43613	789.2	18.2
0	43614	789.2	17.2
0	43615	789.2	16.2
0	43616	789.2	15.2
0	43617	789.2	14.2
0	43618	789.2	12.2
0	43619	789.2	11.2
0	43620	789.2	10.2
0	43621	789.2	8.2
0	43622	789.2	7.2
0	43623	789.2	5.2
0	43624	789.2	4.2
0	43752	789.4	3.4
0	43938	790.4	3.4
0	44096	791.4	3.4
0	44205	792.4	3.4
0	44290	793.4	3.4
0	44370	794.4	3.4
0	44446	795.4	3.4
0	44529	796.4	3.4
0	44577	797.4	3.4
0	44600	798.4	3.4
0	45947	820.1	23.1
0	45948	820.1	22.1
0	45949	820.1	21.1
0	45950	820.1	20.1
0	45951	820.1	18.1
0	45952	820.1	17.1
0	45953	820.1	16.1
0	45954	820.1	14.1
0	45955	820.1	13.1
0	45956	820.1	24.1
0	45957	820.1	148.1
0	45958	820.1	146.1
0	45959	820.1	139.1
0	45960	820.1	12.1
0	45961	820.1	11.1
0	45962	820.1	10.1
0	45963	820.1	9.1
0	45964	820.1	7.1
0	45965	820.1	6.1
0	45966	820.1	246.1
0	45967	820.1	245.1
0	45968	820.1	5.1
0	45969	820.1	4.1
0	45970	820.1	3.1
0	45971	820.1	349.1
0	45972	820.1	151.1
0	45973	820.1	133.1
0	45974	820.1	130.1
0	45975	820.1	2.1
0	46249	825.1	220.1
0	47005	853.1	153.1
0	47006	853.1	150.1
0	47007	853.1	148.1
0	47008	853.1	131.1
0	47009	853.1	126.1
0	47010	853.1	122.1
0	47011	853.1	118.1
0	47012	853.1	227.1
0	47013	853.1	221.1
0	47014	853.1	34.1
0	47015	853.1	33.1
0	47016	853.1	32.1
0	47017	853.1	31.1
0	47018	853.1	30.1
0	47019	853.1	29.1
0	47020	853.1	28.1
0	47021	853.1	26.1
0	47022	853.1	24.1
0	47023	853.1	23.1
0	47024	853.1	22.1
0	47025	853.1	21.1
0	47026	853.1	20.1
0	47027	853.1	19.1
0	47028	853.1	18.1
0	47029	853.1	17.1
0	47030	853.1	16.1
0	47031	853.1	211.1
0	47032	853.1	203.1
0	47484	855.3	333.3
0	47674	856.3	18.3
0	47675	856.3	17.3
0	47676	856.3	16.3
0	47677	856.3	15.3
0	47678	856.3	14.3
0	47679	856.3	13.3
0	47680	856.3	11.3
0	47681	856.3	10.3
0	47682	856.3	8.3
0	47683	856.3	5.3
0	47684	856.3	4.3
0	47685	856.3	3.3
0	47686	856.3	2.3
0	47687	856.3	1.3
0	47754	856.4	148.4
0	47755	856.4	147.4
0	47756	856.4	146.4
0	47757	856.4	145.4
0	47758	856.4	137.4
0	47759	856.4	133.4
0	47760	856.4	117.4
0	47761	856.4	113.4
0	47878	857.3	1.3
0	47979	858.5	109.5
0	47980	858.5	107.5
0	48004	859.1	452.1
0	48033	859.3	1.3
0	48105	860.3	1.3
0	48135	861.3	1.3
0	48142	861.4	454.4
0	48181	862.3	1.3
0	48216	864.2	101.2
0	49144	887.1	105.1
0	49277	890.3	101.3
0	49451	900.1	109.1
0	49452	900.1	107.1
0	49453	900.1	106.1
0	49951	906.2	205.2
0	49952	906.2	199.2
0	49953	906.2	188.2
0	49954	906.2	176.2
0	49955	906.2	165.2
0	49956	906.2	151.2
0	49957	906.2	44.2
0	49958	906.2	144.2
0	49959	906.2	43.2
0	49960	906.2	42.2
0	49961	906.2	41.2
0	49962	906.2	40.2
0	49963	906.2	39.2
0	49964	906.2	38.2
0	49965	906.2	37.2
0	49966	906.2	36.2
0	49967	906.2	35.2
0	49968	906.2	34.2
0	49969	906.2	33.2
0	49970	906.2	31.2
0	49971	906.2	29.2
0	49972	906.2	125.2
0	49973	906.2	130.2
0	49974	906.2	125.2
0	49975	906.2	124.2
0	49976	906.2	123.2
0	49977	906.2	122.2
0	49978	906.2	119.2
0	49979	906.2	118.2
0	52372	946.1	256.1
0	52373	946.1	68.1
0	52374	946.1	141.1
0	52375	946.1	134.1
0	52376	946.1	66.1
0	52377	946.1	65.1
0	52378	946.1	64.1
0	52379	946.1	63.1
0	52380	946.1	62.1
0	52381	946.1	61.1
0	52382	946.1	60.1
0	52383	946.1	59.1
0	52384	946.1	58.1
0	52385	946.1	57.1
0	52386	946.1	56.1
0	52387	946.1	55.1
0	52388	946.1	54.1
0	52389	946.1	53.1
0	52390	946.1	52.1
0	52391	946.1	51.1
0	52392	946.1	50.1
0	52393	946.1	49.1
0	52394	946.1	48.1
0	52395	946.1	47.1
0	52396	946.1	45.1
0	52397	946.1	44.1
0	52398	946.1	43.1
0	52399	946.1	42.1
0	52400	946.1	41.1
0	52401	946.1	40.1
0	52402	946.1	39.1
0	52403	946.1	37.1
0	52404	946.1	35.1
0	52405	946.1	34.1
0	52406	946.1	32.1
0	52407	946.1	31.1
0	52408	946.1	30.1
0	52409	946.1	29.1
0	52410	946.1	28.1
0	52411	946.1	27.1
0	52412	946.1	26.1
0	52413	946.1	25.1
0	52414	946.1	24.1
0	52415	946.1	23.1
0	52416	946.1	22.1
0	52417	946.1	21.1
0	52418	946.1	20.1
0	52419	946.1	19.1
0	52420	946.1	18.1
0	52421	946.1	17.1
0	52422	946.1	16.1
0	52423	946.1	15.1
0	52424	946.1	14.1
0	52425	946.1	13.1
0	52426	946.1	12.1
0	52427	946.1	11.1
0	52428	946.1	10.1
0	52429	946.1	9.1
0	52430	946.1	139.1
0	52431	946.1	132.1
0	52432	946.1	130.1
0	52433	946.1	259.1
0	52501	947.2	9.2
0	52502	947.2	8.2
0	52503	947.2	121.2
0	52504	947.2	119.2
0	52505	947.2	7.2
0	52506	947.2	6.2
0	52507	947.2	5.2
0	52508	947.2	4.2
0	52509	947.2	3.2
0	52865	951.3	6.3
0	52866	951.3	5.3
0	52867	951.3	4.3
0	52868	951.3	3.3
0	52869	951.3	1.3
0	52940	952.3	1.3
0	53125	953.1	250.1
0	53126	953.1	231.1
0	53127	953.1	226.1
0	53128	953.1	218.1
0	53129	953.1	327.1
0	53130	953.1	134.1
0	53131	953.1	126.1
0	53132	953.1	117.1
0	53133	953.1	303.1
0	53163	953.3	1.3
0	53231	954.3	1.3
0	53371	955.3	1.3
0	53455	956.3	104.3
0	53456	956.3	112.3
0	53457	956.3	109.3
0	53458	956.3	107.3
0	53459	956.3	106.3
0	53496	957.3	1.3
0	53522	958.3	101.3
0	54684	976.1	17.1
0	55202	990.1	251.1
0	55203	990.1	29.1
0	55204	990.1	28.1
0	55205	990.1	27.1
0	55206	990.1	26.1
0	55207	990.1	25.1
0	55208	990.1	23.1
0	55209	990.1	22.1
0	55210	990.1	21.1
0	55211	990.1	20.1
0	55212	990.1	19.1
0	55213	990.1	18.1
0	55214	990.1	17.1
0	55215	990.1	16.1
0	55216	990.1	15.1
0	55217	990.1	14.1
0	55218	990.1	13.1
0	55219	990.1	12.1
0	55220	990.1	11.1
0	55221	990.1	10.1
0	55222	990.1	9.1
0	55223	990.1	8.1
0	55224	990.1	6.1
0	55225	990.1	5.1
0	55226	990.1	221.1

