version 2
run General-0-20250128-16:29:00-76682
attr configname General
attr datetime 20250128-16:29:00
attr experiment General
attr inifile shaw_mine.ini
attr iterationvars ""
attr iterationvarsf ""
attr measurement ""
attr network src.dtnsim
attr processid 76682
attr repetition 0
attr replication #0
attr resultdir results
attr runnumber 0
attr seedset 0
param dtnsim.central.contactsFile "\"contactPlan/Contacts.txt\""
param dtnsim.central.contactsFile_A "\"contactPlan/Contacts.txt\""
param dtnsim.central.contactsFile_B "\"contactPlan/Contacts.txt\""
param dtnsim.central.contactIdsToDelete "\"6 9 13 14 15 17 18 23 24 26 29 43 53 64 65 67 69 75 76 77 79 85 87 88 90 93 95 97 100 105 108 117 127 128 136 137 144 145 148 149 151 153 154 157 158 162 170 177 191 194 201 203 206 222 223 230 234 235 238 239 243 244 245 251 254 255 257 258 259 265 269 273 276 277 282 283 287 293 294 297 301 305 308 315 316 318 321 339 340 347 349 353 354 356 359 365 380 384 391 393\""
param dtnsim.central.contactIdsToDelete_from_celestialA "\"13 15 17 23 29 64 67 77 85 95 97 100 105 117 128 137 148 149 154 191 206 230 235 238 244 255 257 258 265 269 273 276 277 283 294 297 308 316 318 339 347 349 356 359 380 391 393\""
param dtnsim.central.contactIdsToDelete_from_celestialB "\"6 9 14 18 24 26 43 53 65 69 75 76 79 87 88 90 93 108 127 136 144 145 151 153 157 158 162 170 177 194 201 203 222 223 234 239 243 245 251 254 259 282 287 293 301 305 315 321 340 353 354 365 384\""
param dtnsim.central.celestialA_nodes "\"1 2 3\""
param dtnsim.central.celestialB_nodes "\"4 5 6\""
param dtnsim.central.locallyfaultsAware true
param dtnsim.central.mode_two_celestial true
param dtnsim.central.faultsAware false
param dtnsim.nodesNumber 6
param dtnsim.node[1].icon "\"receiverdish\""
param dtnsim.node[2..5].icon "\"satellite\""
param dtnsim.node[6].icon "\"receiverdish\""
param dtnsim.node[*].dtn.routing "\"cgrModel350\""
param dtnsim.node[*].dtn.routingType "\"routeListType:allPaths-firstEnding,volumeAware:allContacts,extensionBlock:on,contactPlan:global\""
param dtnsim.node[1].app.enable true
param dtnsim.node[1].app.custodyTransfer true
param dtnsim.node[1].app.bundlesNumber "\"2000\""
param dtnsim.node[1].app.start "\"0\""
param dtnsim.node[1].app.destinationEid "\"6\""
param dtnsim.node[1].app.size "\"1500\""
param dtnsim.node[1].app.interval 10
param dtnsim.node[*].app.custodyTimeout 10000
param dtnsim.node[1].app.ttl 5000

vector 0 dtnsim.node[6].app appBundleReceivedDelayvec:vector ETV
attr interpolationmode none
attr source appBundleReceivedDelay
attr title "appBundleReceivedDelayvec, vector"
0	7995	1458.07	1458.07
0	7996	1458.07	1448.07
0	7997	1458.07	1438.07
0	7998	1458.07	1428.07
0	7999	1458.07	1418.07
0	8000	1458.07	1408.07
0	8001	1458.07	1398.07
0	8002	1458.07	1388.07
0	8003	1458.07	1378.07
0	8004	1458.07	1368.07
0	8005	1458.07	1358.07
0	8006	1458.07	1348.07
0	8007	1458.07	1338.07
0	8008	1458.07	1328.07
0	8009	1458.07	1318.07
0	8010	1458.07	1308.07
0	8261	1460.07	1300.07
0	8368	1470.07	1300.07
0	8475	1480.07	1300.07
0	8582	1490.07	1300.07
0	8689	1500.07	1300.07
0	8796	1510.07	1300.07
0	8903	1520.07	1300.07
0	9010	1530.07	1300.07
0	9117	1540.07	1300.07
0	9224	1550.07	1300.07
0	9489	1558.07	1558.07
0	9490	1558.07	1548.07
0	9491	1558.07	1538.07
0	9492	1558.07	1528.07
0	9493	1558.07	1518.07
0	9494	1558.07	1508.07
0	9495	1558.07	1498.07
0	9496	1558.07	1488.07
0	9497	1558.07	1478.07
0	9498	1558.07	1468.07
0	9499	1558.07	1458.07
0	9500	1558.07	1448.07
0	9501	1558.07	1438.07
0	9502	1558.07	1428.07
0	9503	1558.07	1418.07
0	9504	1558.07	1408.07
0	9766	1560.07	1400.07
0	9767	1560.07	1300.07
0	9899	1570.07	1400.07
0	9900	1570.07	1300.07
0	10032	1580.07	1400.07
0	10033	1580.07	1300.07
0	10165	1590.07	1400.07
0	10166	1590.07	1300.07
0	10298	1600.07	1400.07
0	10299	1600.07	1300.07
0	10431	1610.07	1400.07
0	10432	1610.07	1300.07
0	10564	1620.07	1400.07
0	10565	1620.07	1300.07
0	10697	1630.07	1400.07
0	10698	1630.07	1300.07
0	10830	1640.07	1400.07
0	10831	1640.07	1300.07
0	10963	1650.07	1400.07
0	10964	1650.07	1300.07
0	11243	1658.07	1658.07
0	11244	1658.07	1648.07
0	11245	1658.07	1638.07
0	11246	1658.07	1628.07
0	11247	1658.07	1618.07
0	11248	1658.07	1608.07
0	11249	1658.07	1598.07
0	11250	1658.07	1588.07
0	11251	1658.07	1578.07
0	11252	1658.07	1568.07
0	11253	1658.07	1558.07
0	11254	1658.07	1548.07
0	11255	1658.07	1538.07
0	11256	1658.07	1528.07
0	11257	1658.07	1518.07
0	11258	1658.07	1508.07
0	11531	1660.07	1500.07
0	11532	1660.07	1400.07
0	11533	1660.07	1300.07
0	11690	1670.07	1500.07
0	11691	1670.07	1400.07
0	11692	1670.07	1300.07
0	11849	1680.07	1500.07
0	11850	1680.07	1400.07
0	11851	1680.07	1300.07
0	12008	1690.07	1500.07
0	12009	1690.07	1400.07
0	12010	1690.07	1300.07
0	12167	1700.07	1500.07
0	12168	1700.07	1400.07
0	12169	1700.07	1300.07
0	12326	1710.07	1500.07
0	12327	1710.07	1400.07
0	12328	1710.07	1300.07
0	12485	1720.07	1500.07
0	12486	1720.07	1400.07
0	12487	1720.07	1300.07
0	12644	1730.07	1500.07
0	12645	1730.07	1400.07
0	12646	1730.07	1300.07
0	12803	1740.07	1500.07
0	12804	1740.07	1400.07
0	12805	1740.07	1300.07
0	12962	1750.07	1500.07
0	12963	1750.07	1400.07
0	12964	1750.07	1300.07
0	13257	1758.07	1758.07
0	13258	1758.07	1748.07
0	13259	1758.07	1738.07
0	13260	1758.07	1728.07
0	13261	1758.07	1718.07
0	13262	1758.07	1708.07
0	13263	1758.07	1698.07
0	13264	1758.07	1688.07
0	13265	1758.07	1678.07
0	13266	1758.07	1668.07
0	13267	1758.07	1658.07
0	13268	1758.07	1648.07
0	13269	1758.07	1638.07
0	13270	1758.07	1628.07
0	13271	1758.07	1618.07
0	13272	1758.07	1608.07
0	13556	1760.07	1600.07
0	13557	1760.07	1500.07
0	13558	1760.07	1400.07
0	13559	1760.07	1300.07
0	13741	1770.07	1600.07
0	13742	1770.07	1500.07
0	13743	1770.07	1400.07
0	13744	1770.07	1300.07
0	13926	1780.07	1600.07
0	13927	1780.07	1500.07
0	13928	1780.07	1400.07
0	13929	1780.07	1300.07
0	14111	1790.07	1600.07
0	14112	1790.07	1500.07
0	14113	1790.07	1400.07
0	14114	1790.07	1300.07
0	14296	1800.07	1600.07
0	14297	1800.07	1500.07
0	14298	1800.07	1400.07
0	14299	1800.07	1300.07
0	14481	1810.07	1600.07
0	14482	1810.07	1500.07
0	14483	1810.07	1400.07
0	14484	1810.07	1300.07
0	14666	1820.07	1600.07
0	14667	1820.07	1500.07
0	14668	1820.07	1400.07
0	14669	1820.07	1300.07
0	14851	1830.07	1600.07
0	14852	1830.07	1500.07
0	14853	1830.07	1400.07
0	14854	1830.07	1300.07
0	15036	1840.07	1600.07
0	15037	1840.07	1500.07
0	15038	1840.07	1400.07
0	15039	1840.07	1300.07
0	15221	1850.07	1600.07
0	15222	1850.07	1500.07
0	15223	1850.07	1400.07
0	15224	1850.07	1300.07
0	15531	1858.07	1858.07
0	15532	1858.07	1848.07
0	15533	1858.07	1838.07
0	15534	1858.07	1828.07
0	15535	1858.07	1818.07
0	15536	1858.07	1808.07
0	15537	1858.07	1798.07
0	15538	1858.07	1788.07
0	15539	1858.07	1778.07
0	15540	1858.07	1768.07
0	15541	1858.07	1758.07
0	15542	1858.07	1748.07
0	15543	1858.07	1738.07
0	15544	1858.07	1728.07
0	15545	1858.07	1718.07
0	15546	1858.07	1708.07
0	15841	1860.07	1700.07
0	15842	1860.07	1600.07
0	15843	1860.07	1500.07
0	15844	1860.07	1400.07
0	15845	1860.07	1300.07
0	16052	1870.07	1700.07
0	16053	1870.07	1600.07
0	16054	1870.07	1500.07
0	16055	1870.07	1400.07
0	16056	1870.07	1300.07
0	16263	1880.07	1700.07
0	16264	1880.07	1600.07
0	16265	1880.07	1500.07
0	16266	1880.07	1400.07
0	16267	1880.07	1300.07
0	16474	1890.07	1700.07
0	16475	1890.07	1600.07
0	16476	1890.07	1500.07
0	16477	1890.07	1400.07
0	16478	1890.07	1300.07
0	16685	1900.07	1700.07
0	16686	1900.07	1600.07
0	16687	1900.07	1500.07
0	16688	1900.07	1400.07
0	16689	1900.07	1300.07
0	16896	1910.07	1700.07
0	16897	1910.07	1600.07
0	16898	1910.07	1500.07
0	16899	1910.07	1400.07
0	16900	1910.07	1300.07
0	17107	1920.07	1700.07
0	17108	1920.07	1600.07
0	17109	1920.07	1500.07
0	17110	1920.07	1400.07
0	17111	1920.07	1300.07
0	17318	1930.07	1700.07
0	17319	1930.07	1600.07
0	17320	1930.07	1500.07
0	17321	1930.07	1400.07
0	17322	1930.07	1300.07
0	17529	1940.07	1700.07
0	17530	1940.07	1600.07
0	17531	1940.07	1500.07
0	17532	1940.07	1400.07
0	17533	1940.07	1300.07
0	17740	1950.07	1700.07
0	17741	1950.07	1600.07
0	17742	1950.07	1500.07
0	17743	1950.07	1400.07
0	17744	1950.07	1300.07
0	18065	1958.07	1958.07
0	18066	1958.07	1948.07
0	18067	1958.07	1938.07
0	18068	1958.07	1928.07
0	18069	1958.07	1918.07
0	18070	1958.07	1908.07
0	18071	1958.07	1898.07
0	18072	1958.07	1888.07
0	18073	1958.07	1878.07
0	18074	1958.07	1868.07
0	18075	1958.07	1858.07
0	18076	1958.07	1848.07
0	18077	1958.07	1838.07
0	18078	1958.07	1828.07
0	18079	1958.07	1818.07
0	18080	1958.07	1808.07
0	18338	1960.07	1800.07
0	18339	1960.07	1700.07
0	18340	1960.07	1600.07
0	18341	1960.07	1500.07
0	18342	1960.07	1400.07
0	18343	1960.07	1300.07
0	18518	1970.07	1800.07
0	18519	1970.07	1700.07
0	18520	1970.07	1600.07
0	18521	1970.07	1500.07
0	18522	1970.07	1400.07
0	18523	1970.07	1300.07
0	18698	1980.07	1800.07
0	18699	1980.07	1700.07
0	18700	1980.07	1600.07
0	18701	1980.07	1500.07
0	18702	1980.07	1400.07
0	18703	1980.07	1300.07
0	18878	1990.07	1800.07
0	18879	1990.07	1700.07
0	18880	1990.07	1600.07
0	18881	1990.07	1500.07
0	18882	1990.07	1400.07
0	18883	1990.07	1300.07
0	19058	2000.07	1800.07
0	19059	2000.07	1700.07
0	19060	2000.07	1600.07
0	19061	2000.07	1500.07
0	19062	2000.07	1400.07
0	19063	2000.07	1300.07
0	19238	2010.07	1800.07
0	19239	2010.07	1700.07
0	19240	2010.07	1600.07
0	19241	2010.07	1500.07
0	19242	2010.07	1400.07
0	19243	2010.07	1300.07
0	19418	2020.07	1800.07
0	19419	2020.07	1700.07
0	19420	2020.07	1600.07
0	19421	2020.07	1500.07
0	19422	2020.07	1400.07
0	19423	2020.07	1300.07
0	19598	2030.07	1800.07
0	19599	2030.07	1700.07
0	19600	2030.07	1600.07
0	19601	2030.07	1500.07
0	19602	2030.07	1400.07
0	19603	2030.07	1300.07
0	19778	2040.07	1800.07
0	19779	2040.07	1700.07
0	19780	2040.07	1600.07
0	19781	2040.07	1500.07
0	19782	2040.07	1400.07
0	19783	2040.07	1300.07
0	19958	2050.07	1800.07
0	19959	2050.07	1700.07
0	19960	2050.07	1600.07
0	19961	2050.07	1500.07
0	19962	2050.07	1400.07
0	19963	2050.07	1300.07
0	20241	2058.07	2058.07
0	20242	2058.07	2048.07
0	20243	2058.07	2038.07
0	20244	2058.07	2028.07
0	20245	2058.07	2018.07
0	20246	2058.07	2008.07
0	20247	2058.07	1998.07
0	20248	2058.07	1988.07
0	20249	2058.07	1978.07
0	20250	2058.07	1968.07
0	20251	2058.07	1958.07
0	20252	2058.07	1948.07
0	20253	2058.07	1938.07
0	20254	2058.07	1928.07
0	20255	2058.07	1918.07
0	20256	2058.07	1908.07
0	20507	2060.07	1900.07
0	20508	2060.07	1800.07
0	20509	2060.07	1700.07
0	20510	2060.07	1600.07
0	20511	2060.07	1500.07
0	20512	2060.07	1400.07
0	20513	2060.07	1300.07
0	20691	2070.07	1900.07
0	20692	2070.07	1800.07
0	20693	2070.07	1700.07
0	20694	2070.07	1600.07
0	20695	2070.07	1500.07
0	20696	2070.07	1400.07
0	20697	2070.07	1300.07
0	20875	2080.07	1900.07
0	20876	2080.07	1800.07
0	20877	2080.07	1700.07
0	20878	2080.07	1600.07
0	20879	2080.07	1500.07
0	20880	2080.07	1400.07
0	20881	2080.07	1300.07
0	21059	2090.07	1900.07
0	21060	2090.07	1800.07
0	21061	2090.07	1700.07
0	21062	2090.07	1600.07
0	21063	2090.07	1500.07
0	21064	2090.07	1400.07
0	21065	2090.07	1300.07
0	21243	2100.07	1900.07
0	21244	2100.07	1800.07
0	21245	2100.07	1700.07
0	21246	2100.07	1600.07
0	21247	2100.07	1500.07
0	21248	2100.07	1400.07
0	21249	2100.07	1300.07
0	21427	2110.07	1900.07
0	21428	2110.07	1800.07
0	21429	2110.07	1700.07
0	21430	2110.07	1600.07
0	21431	2110.07	1500.07
0	21432	2110.07	1400.07
0	21433	2110.07	1300.07
0	21611	2120.07	1900.07
0	21612	2120.07	1800.07
0	21613	2120.07	1700.07
0	21614	2120.07	1600.07
0	21615	2120.07	1500.07
0	21616	2120.07	1400.07
0	21617	2120.07	1300.07
0	21795	2130.07	1900.07
0	21796	2130.07	1800.07
0	21797	2130.07	1700.07
0	21798	2130.07	1600.07
0	21799	2130.07	1500.07
0	21800	2130.07	1400.07
0	21801	2130.07	1300.07
0	21979	2140.07	1900.07
0	21980	2140.07	1800.07
0	21981	2140.07	1700.07
0	21982	2140.07	1600.07
0	21983	2140.07	1500.07
0	21984	2140.07	1400.07
0	21985	2140.07	1300.07
0	22163	2150.07	1900.07
0	22164	2150.07	1800.07
0	22165	2150.07	1700.07
0	22166	2150.07	1600.07
0	22167	2150.07	1500.07
0	22168	2150.07	1400.07
0	22169	2150.07	1300.07
0	22439	2158.07	2158.07
0	22440	2158.07	2148.07
0	22441	2158.07	2138.07
0	22442	2158.07	2128.07
0	22443	2158.07	2118.07
0	22444	2158.07	2108.07
0	22445	2158.07	2098.07
0	22446	2158.07	2088.07
0	22447	2158.07	2078.07
0	22448	2158.07	2068.07
0	22449	2158.07	2058.07
0	22450	2158.07	2048.07
0	22451	2158.07	2038.07
0	22452	2158.07	2028.07
0	22453	2158.07	2018.07
0	22454	2158.07	2008.07
0	22716	2160.07	2000.07
0	22717	2160.07	1900.07
0	22718	2160.07	1800.07
0	22719	2160.07	1700.07
0	22720	2160.07	1600.07
0	22721	2160.07	1500.07
0	22722	2160.07	1400.07
0	22723	2160.07	1300.07
0	22922	2170.07	2000.07
0	22923	2170.07	1900.07
0	22924	2170.07	1800.07
0	22925	2170.07	1700.07
0	22926	2170.07	1600.07
0	22927	2170.07	1500.07
0	22928	2170.07	1400.07
0	22929	2170.07	1300.07
0	23128	2180.07	2000.07
0	23129	2180.07	1900.07
0	23130	2180.07	1800.07
0	23131	2180.07	1700.07
0	23132	2180.07	1600.07
0	23133	2180.07	1500.07
0	23134	2180.07	1400.07
0	23135	2180.07	1300.07
0	23334	2190.07	2000.07
0	23335	2190.07	1900.07
0	23336	2190.07	1800.07
0	23337	2190.07	1700.07
0	23338	2190.07	1600.07
0	23339	2190.07	1500.07
0	23340	2190.07	1400.07
0	23341	2190.07	1300.07
0	23540	2200.07	2000.07
0	23541	2200.07	1900.07
0	23542	2200.07	1800.07
0	23543	2200.07	1700.07
0	23544	2200.07	1600.07
0	23545	2200.07	1500.07
0	23546	2200.07	1400.07
0	23547	2200.07	1300.07
0	23746	2210.07	2000.07
0	23747	2210.07	1900.07
0	23748	2210.07	1800.07
0	23749	2210.07	1700.07
0	23750	2210.07	1600.07
0	23751	2210.07	1500.07
0	23752	2210.07	1400.07
0	23753	2210.07	1300.07
0	23952	2220.07	2000.07
0	23953	2220.07	1900.07
0	23954	2220.07	1800.07
0	23955	2220.07	1700.07
0	23956	2220.07	1600.07
0	23957	2220.07	1500.07
0	23958	2220.07	1400.07
0	23959	2220.07	1300.07
0	24158	2230.07	2000.07
0	24159	2230.07	1900.07
0	24160	2230.07	1800.07
0	24161	2230.07	1700.07
0	24162	2230.07	1600.07
0	24163	2230.07	1500.07
0	24164	2230.07	1400.07
0	24165	2230.07	1300.07
0	24364	2240.07	2000.07
0	24365	2240.07	1900.07
0	24366	2240.07	1800.07
0	24367	2240.07	1700.07
0	24368	2240.07	1600.07
0	24369	2240.07	1500.07
0	24370	2240.07	1400.07
0	24371	2240.07	1300.07
0	24570	2250.07	2000.07
0	24571	2250.07	1900.07
0	24572	2250.07	1800.07
0	24573	2250.07	1700.07
0	24574	2250.07	1600.07
0	24575	2250.07	1500.07
0	24576	2250.07	1400.07
0	24577	2250.07	1300.07
0	24857	2258.07	2258.07
0	24858	2258.07	2248.07
0	24859	2258.07	2238.07
0	24860	2258.07	2228.07
0	24861	2258.07	2218.07
0	24862	2258.07	2208.07
0	24863	2258.07	2198.07
0	24864	2258.07	2188.07
0	24865	2258.07	2178.07
0	24866	2258.07	2168.07
0	24867	2258.07	2158.07
0	24868	2258.07	2148.07
0	24869	2258.07	2138.07
0	24870	2258.07	2128.07
0	24871	2258.07	2118.07
0	24872	2258.07	2108.07
0	25145	2260.07	2100.07
0	25146	2260.07	2000.07
0	25147	2260.07	1900.07
0	25148	2260.07	1800.07
0	25149	2260.07	1700.07
0	25150	2260.07	1600.07
0	25151	2260.07	1500.07
0	25152	2260.07	1400.07
0	25153	2260.07	1300.07
0	25373	2270.07	2100.07
0	25374	2270.07	2000.07
0	25375	2270.07	1900.07
0	25376	2270.07	1800.07
0	25377	2270.07	1700.07
0	25378	2270.07	1600.07
0	25379	2270.07	1500.07
0	25380	2270.07	1400.07
0	25381	2270.07	1300.07
0	25601	2280.07	2100.07
0	25602	2280.07	2000.07
0	25603	2280.07	1900.07
0	25604	2280.07	1800.07
0	25605	2280.07	1700.07
0	25606	2280.07	1600.07
0	25607	2280.07	1500.07
0	25608	2280.07	1400.07
0	25609	2280.07	1300.07
0	25829	2290.07	2100.07
0	25830	2290.07	2000.07
0	25831	2290.07	1900.07
0	25832	2290.07	1800.07
0	25833	2290.07	1700.07
0	25834	2290.07	1600.07
0	25835	2290.07	1500.07
0	25836	2290.07	1400.07
0	25837	2290.07	1300.07
0	26057	2300.07	2100.07
0	26058	2300.07	2000.07
0	26059	2300.07	1900.07
0	26060	2300.07	1800.07
0	26061	2300.07	1700.07
0	26062	2300.07	1600.07
0	26063	2300.07	1500.07
0	26064	2300.07	1400.07
0	26065	2300.07	1300.07
0	26285	2310.07	2100.07
0	26286	2310.07	2000.07
0	26287	2310.07	1900.07
0	26288	2310.07	1800.07
0	26289	2310.07	1700.07
0	26290	2310.07	1600.07
0	26291	2310.07	1500.07
0	26292	2310.07	1400.07
0	26293	2310.07	1300.07
0	26513	2320.07	2100.07
0	26514	2320.07	2000.07
0	26515	2320.07	1900.07
0	26516	2320.07	1800.07
0	26517	2320.07	1700.07
0	26518	2320.07	1600.07
0	26519	2320.07	1500.07
0	26520	2320.07	1400.07
0	26521	2320.07	1300.07
0	26741	2330.07	2100.07
0	26742	2330.07	2000.07
0	26743	2330.07	1900.07
0	26744	2330.07	1800.07
0	26745	2330.07	1700.07
0	26746	2330.07	1600.07
0	26747	2330.07	1500.07
0	26748	2330.07	1400.07
0	26749	2330.07	1300.07
0	26969	2340.07	2100.07
0	26970	2340.07	2000.07
0	26971	2340.07	1900.07
0	26972	2340.07	1800.07
0	26973	2340.07	1700.07
0	26974	2340.07	1600.07
0	26975	2340.07	1500.07
0	26976	2340.07	1400.07
0	26977	2340.07	1300.07
0	27197	2350.07	2100.07
0	27198	2350.07	2000.07
0	27199	2350.07	1900.07
0	27200	2350.07	1800.07
0	27201	2350.07	1700.07
0	27202	2350.07	1600.07
0	27203	2350.07	1500.07
0	27204	2350.07	1400.07
0	27205	2350.07	1300.07
0	27495	2358.07	2358.07
0	27496	2358.07	2348.07
0	27497	2358.07	2338.07
0	27498	2358.07	2328.07
0	27499	2358.07	2318.07
0	27500	2358.07	2308.07
0	27501	2358.07	2298.07
0	27502	2358.07	2288.07
0	27503	2358.07	2278.07
0	27504	2358.07	2268.07
0	27505	2358.07	2258.07
0	27506	2358.07	2248.07
0	27507	2358.07	2238.07
0	27508	2358.07	2228.07
0	27509	2358.07	2218.07
0	27510	2358.07	2208.07
0	27794	2360.07	2200.07
0	27795	2360.07	2100.07
0	27796	2360.07	2000.07
0	27797	2360.07	1900.07
0	27798	2360.07	1800.07
0	27799	2360.07	1700.07
0	27800	2360.07	1600.07
0	27801	2360.07	1500.07
0	27802	2360.07	1400.07
0	27803	2360.07	1300.07
0	28044	2370.07	2200.07
0	28045	2370.07	2100.07
0	28046	2370.07	2000.07
0	28047	2370.07	1900.07
0	28048	2370.07	1800.07
0	28049	2370.07	1700.07
0	28050	2370.07	1600.07
0	28051	2370.07	1500.07
0	28052	2370.07	1400.07
0	28053	2370.07	1300.07
0	28294	2380.07	2200.07
0	28295	2380.07	2100.07
0	28296	2380.07	2000.07
0	28297	2380.07	1900.07
0	28298	2380.07	1800.07
0	28299	2380.07	1700.07
0	28300	2380.07	1600.07
0	28301	2380.07	1500.07
0	28302	2380.07	1400.07
0	28303	2380.07	1300.07
0	28544	2390.07	2200.07
0	28545	2390.07	2100.07
0	28546	2390.07	2000.07
0	28547	2390.07	1900.07
0	28548	2390.07	1800.07
0	28549	2390.07	1700.07
0	28550	2390.07	1600.07
0	28551	2390.07	1500.07
0	28552	2390.07	1400.07
0	28553	2390.07	1300.07
0	28794	2400.07	2200.07
0	28795	2400.07	2100.07
0	28796	2400.07	2000.07
0	28797	2400.07	1900.07
0	28798	2400.07	1800.07
0	28799	2400.07	1700.07
0	28800	2400.07	1600.07
0	28801	2400.07	1500.07
0	28802	2400.07	1400.07
0	28803	2400.07	1300.07
0	29044	2410.07	2200.07
0	29045	2410.07	2100.07
0	29046	2410.07	2000.07
0	29047	2410.07	1900.07
0	29048	2410.07	1800.07
0	29049	2410.07	1700.07
0	29050	2410.07	1600.07
0	29051	2410.07	1500.07
0	29052	2410.07	1400.07
0	29053	2410.07	1300.07
0	29294	2420.07	2200.07
0	29295	2420.07	2100.07
0	29296	2420.07	2000.07
0	29297	2420.07	1900.07
0	29298	2420.07	1800.07
0	29299	2420.07	1700.07
0	29300	2420.07	1600.07
0	29301	2420.07	1500.07
0	29302	2420.07	1400.07
0	29303	2420.07	1300.07
0	29544	2430.07	2200.07
0	29545	2430.07	2100.07
0	29546	2430.07	2000.07
0	29547	2430.07	1900.07
0	29548	2430.07	1800.07
0	29549	2430.07	1700.07
0	29550	2430.07	1600.07
0	29551	2430.07	1500.07
0	29552	2430.07	1400.07
0	29553	2430.07	1300.07
0	29794	2440.07	2200.07
0	29795	2440.07	2100.07
0	29796	2440.07	2000.07
0	29797	2440.07	1900.07
0	29798	2440.07	1800.07
0	29799	2440.07	1700.07
0	29800	2440.07	1600.07
0	29801	2440.07	1500.07
0	29802	2440.07	1400.07
0	29803	2440.07	1300.07
0	30044	2450.07	2200.07
0	30045	2450.07	2100.07
0	30046	2450.07	2000.07
0	30047	2450.07	1900.07
0	30048	2450.07	1800.07
0	30049	2450.07	1700.07
0	30050	2450.07	1600.07
0	30051	2450.07	1500.07
0	30052	2450.07	1400.07
0	30053	2450.07	1300.07
0	30353	2458.07	2458.07
0	30354	2458.07	2448.07
0	30355	2458.07	2438.07
0	30356	2458.07	2428.07
0	30357	2458.07	2418.07
0	30358	2458.07	2408.07
0	30359	2458.07	2398.07
0	30360	2458.07	2388.07
0	30361	2458.07	2378.07
0	30362	2458.07	2368.07
0	30363	2458.07	2358.07
0	30364	2458.07	2348.07
0	30365	2458.07	2338.07
0	30366	2458.07	2328.07
0	30367	2458.07	2318.07
0	30368	2458.07	2308.07
0	30663	2460.07	2300.07
0	30664	2460.07	2200.07
0	30665	2460.07	2100.07
0	30666	2460.07	2000.07
0	30667	2460.07	1900.07
0	30668	2460.07	1800.07
0	30669	2460.07	1700.07
0	30670	2460.07	1600.07
0	30671	2460.07	1500.07
0	30672	2460.07	1400.07
0	30673	2460.07	1300.07
0	30935	2470.07	2300.07
0	30936	2470.07	2200.07
0	30937	2470.07	2100.07
0	30938	2470.07	2000.07
0	30939	2470.07	1900.07
0	30940	2470.07	1800.07
0	30941	2470.07	1700.07
0	30942	2470.07	1600.07
0	30943	2470.07	1500.07
0	30944	2470.07	1400.07
0	30945	2470.07	1300.07
0	31207	2480.07	2300.07
0	31208	2480.07	2200.07
0	31209	2480.07	2100.07
0	31210	2480.07	2000.07
0	31211	2480.07	1900.07
0	31212	2480.07	1800.07
0	31213	2480.07	1700.07
0	31214	2480.07	1600.07
0	31215	2480.07	1500.07
0	31216	2480.07	1400.07
0	31217	2480.07	1300.07
0	31479	2490.07	2300.07
0	31480	2490.07	2200.07
0	31481	2490.07	2100.07
0	31482	2490.07	2000.07
0	31483	2490.07	1900.07
0	31484	2490.07	1800.07
0	31485	2490.07	1700.07
0	31486	2490.07	1600.07
0	31487	2490.07	1500.07
0	31488	2490.07	1400.07
0	31489	2490.07	1300.07
0	31751	2500.07	2300.07
0	31752	2500.07	2200.07
0	31753	2500.07	2100.07
0	31754	2500.07	2000.07
0	31755	2500.07	1900.07
0	31756	2500.07	1800.07
0	31757	2500.07	1700.07
0	31758	2500.07	1600.07
0	31759	2500.07	1500.07
0	31760	2500.07	1400.07
0	31761	2500.07	1300.07
0	32023	2510.07	2300.07
0	32024	2510.07	2200.07
0	32025	2510.07	2100.07
0	32026	2510.07	2000.07
0	32027	2510.07	1900.07
0	32028	2510.07	1800.07
0	32029	2510.07	1700.07
0	32030	2510.07	1600.07
0	32031	2510.07	1500.07
0	32032	2510.07	1400.07
0	32033	2510.07	1300.07
0	32295	2520.07	2300.07
0	32296	2520.07	2200.07
0	32297	2520.07	2100.07
0	32298	2520.07	2000.07
0	32299	2520.07	1900.07
0	32300	2520.07	1800.07
0	32301	2520.07	1700.07
0	32302	2520.07	1600.07
0	32303	2520.07	1500.07
0	32304	2520.07	1400.07
0	32305	2520.07	1300.07
0	32567	2530.07	2300.07
0	32568	2530.07	2200.07
0	32569	2530.07	2100.07
0	32570	2530.07	2000.07
0	32571	2530.07	1900.07
0	32572	2530.07	1800.07
0	32573	2530.07	1700.07
0	32574	2530.07	1600.07
0	32575	2530.07	1500.07
0	32576	2530.07	1400.07
0	32577	2530.07	1300.07
0	32839	2540.07	2300.07
0	32840	2540.07	2200.07
0	32841	2540.07	2100.07
0	32842	2540.07	2000.07
0	32843	2540.07	1900.07
0	32844	2540.07	1800.07
0	32845	2540.07	1700.07
0	32846	2540.07	1600.07
0	32847	2540.07	1500.07
0	32848	2540.07	1400.07
0	32849	2540.07	1300.07
0	33111	2550.07	2300.07
0	33112	2550.07	2200.07
0	33113	2550.07	2100.07
0	33114	2550.07	2000.07
0	33115	2550.07	1900.07
0	33116	2550.07	1800.07
0	33117	2550.07	1700.07
0	33118	2550.07	1600.07
0	33119	2550.07	1500.07
0	33120	2550.07	1400.07
0	33121	2550.07	1300.07
0	33431	2558.07	2558.07
0	33432	2558.07	2548.07
0	33433	2558.07	2538.07
0	33434	2558.07	2528.07
0	33435	2558.07	2518.07
0	33436	2558.07	2508.07
0	33437	2558.07	2498.07
0	33438	2558.07	2488.07
0	33439	2558.07	2478.07
0	33440	2558.07	2468.07
0	33441	2558.07	2458.07
0	33442	2558.07	2448.07
0	33443	2558.07	2438.07
0	33444	2558.07	2428.07
0	33445	2558.07	2418.07
0	33446	2558.07	2408.07
0	33752	2560.07	2400.07
0	33753	2560.07	2300.07
0	33754	2560.07	2200.07
0	33755	2560.07	2100.07
0	33756	2560.07	2000.07
0	33757	2560.07	1900.07
0	33758	2560.07	1800.07
0	33759	2560.07	1700.07
0	33760	2560.07	1600.07
0	33761	2560.07	1500.07
0	33762	2560.07	1400.07
0	33763	2560.07	1300.07
0	34046	2570.07	2400.07
0	34047	2570.07	2300.07
0	34048	2570.07	2200.07
0	34049	2570.07	2100.07
0	34050	2570.07	2000.07
0	34051	2570.07	1900.07
0	34052	2570.07	1800.07
0	34053	2570.07	1700.07
0	34054	2570.07	1600.07
0	34055	2570.07	1500.07
0	34056	2570.07	1400.07
0	34057	2570.07	1300.07
0	34340	2580.07	2400.07
0	34341	2580.07	2300.07
0	34342	2580.07	2200.07
0	34343	2580.07	2100.07
0	34344	2580.07	2000.07
0	34345	2580.07	1900.07
0	34346	2580.07	1800.07
0	34347	2580.07	1700.07
0	34348	2580.07	1600.07
0	34349	2580.07	1500.07
0	34350	2580.07	1400.07
0	34351	2580.07	1300.07
0	34634	2590.07	2400.07
0	34635	2590.07	2300.07
0	34636	2590.07	2200.07
0	34637	2590.07	2100.07
0	34638	2590.07	2000.07
0	34639	2590.07	1900.07
0	34640	2590.07	1800.07
0	34641	2590.07	1700.07
0	34642	2590.07	1600.07
0	34643	2590.07	1500.07
0	34644	2590.07	1400.07
0	34645	2590.07	1300.07
0	34928	2600.07	2400.07
0	34929	2600.07	2300.07
0	34930	2600.07	2200.07
0	34931	2600.07	2100.07
0	34932	2600.07	2000.07
0	34933	2600.07	1900.07
0	34934	2600.07	1800.07
0	34935	2600.07	1700.07
0	34936	2600.07	1600.07
0	34937	2600.07	1500.07
0	34938	2600.07	1400.07
0	34939	2600.07	1300.07
0	35222	2610.07	2400.07
0	35223	2610.07	2300.07
0	35224	2610.07	2200.07
0	35225	2610.07	2100.07
0	35226	2610.07	2000.07
0	35227	2610.07	1900.07
0	35228	2610.07	1800.07
0	35229	2610.07	1700.07
0	35230	2610.07	1600.07
0	35231	2610.07	1500.07
0	35232	2610.07	1400.07
0	35233	2610.07	1300.07
0	35516	2620.07	2400.07
0	35517	2620.07	2300.07
0	35518	2620.07	2200.07
0	35519	2620.07	2100.07
0	35520	2620.07	2000.07
0	35521	2620.07	1900.07
0	35522	2620.07	1800.07
0	35523	2620.07	1700.07
0	35524	2620.07	1600.07
0	35525	2620.07	1500.07
0	35526	2620.07	1400.07
0	35527	2620.07	1300.07
0	35810	2630.07	2400.07
0	35811	2630.07	2300.07
0	35812	2630.07	2200.07
0	35813	2630.07	2100.07
0	35814	2630.07	2000.07
0	35815	2630.07	1900.07
0	35816	2630.07	1800.07
0	35817	2630.07	1700.07
0	35818	2630.07	1600.07
0	35819	2630.07	1500.07
0	35820	2630.07	1400.07
0	35821	2630.07	1300.07
0	36104	2640.07	2400.07
0	36105	2640.07	2300.07
0	36106	2640.07	2200.07
0	36107	2640.07	2100.07
0	36108	2640.07	2000.07
0	36109	2640.07	1900.07
0	36110	2640.07	1800.07
0	36111	2640.07	1700.07
0	36112	2640.07	1600.07
0	36113	2640.07	1500.07
0	36114	2640.07	1400.07
0	36115	2640.07	1300.07
0	36398	2650.07	2400.07
0	36399	2650.07	2300.07
0	36400	2650.07	2200.07
0	36401	2650.07	2100.07
0	36402	2650.07	2000.07
0	36403	2650.07	1900.07
0	36404	2650.07	1800.07
0	36405	2650.07	1700.07
0	36406	2650.07	1600.07
0	36407	2650.07	1500.07
0	36408	2650.07	1400.07
0	36409	2650.07	1300.07
0	36729	2658.07	2658.07
0	36730	2658.07	2648.07
0	36731	2658.07	2638.07
0	36732	2658.07	2628.07
0	36733	2658.07	2618.07
0	36734	2658.07	2608.07
0	36735	2658.07	2598.07
0	36736	2658.07	2588.07
0	36737	2658.07	2578.07
0	36738	2658.07	2568.07
0	36739	2658.07	2558.07
0	36740	2658.07	2548.07
0	36741	2658.07	2538.07
0	36742	2658.07	2528.07
0	36743	2658.07	2518.07
0	36744	2658.07	2508.07
0	37061	2660.07	2500.07
0	37062	2660.07	2400.07
0	37063	2660.07	2300.07
0	37064	2660.07	2200.07
0	37065	2660.07	2100.07
0	37066	2660.07	2000.07
0	37067	2660.07	1900.07
0	37068	2660.07	1800.07
0	37069	2660.07	1700.07
0	37070	2660.07	1600.07
0	37071	2660.07	1500.07
0	37072	2660.07	1400.07
0	37073	2660.07	1300.07
0	37377	2670.07	2500.07
0	37378	2670.07	2400.07
0	37379	2670.07	2300.07
0	37380	2670.07	2200.07
0	37381	2670.07	2100.07
0	37382	2670.07	2000.07
0	37383	2670.07	1900.07
0	37384	2670.07	1800.07
0	37385	2670.07	1700.07
0	37386	2670.07	1600.07
0	37387	2670.07	1500.07
0	37388	2670.07	1400.07
0	37389	2670.07	1300.07
0	37693	2680.07	2500.07
0	37694	2680.07	2400.07
0	37695	2680.07	2300.07
0	37696	2680.07	2200.07
0	37697	2680.07	2100.07
0	37698	2680.07	2000.07
0	37699	2680.07	1900.07
0	37700	2680.07	1800.07
0	37701	2680.07	1700.07
0	37702	2680.07	1600.07
0	37703	2680.07	1500.07
0	37704	2680.07	1400.07
0	37705	2680.07	1300.07
0	38009	2690.07	2500.07
0	38010	2690.07	2400.07
0	38011	2690.07	2300.07
0	38012	2690.07	2200.07
0	38013	2690.07	2100.07
0	38014	2690.07	2000.07
0	38015	2690.07	1900.07
0	38016	2690.07	1800.07
0	38017	2690.07	1700.07
0	38018	2690.07	1600.07
0	38019	2690.07	1500.07
0	38020	2690.07	1400.07
0	38021	2690.07	1300.07
0	38325	2700.07	2500.07
0	38326	2700.07	2400.07
0	38327	2700.07	2300.07
0	38328	2700.07	2200.07
0	38329	2700.07	2100.07
0	38330	2700.07	2000.07
0	38331	2700.07	1900.07
0	38332	2700.07	1800.07
0	38333	2700.07	1700.07
0	38334	2700.07	1600.07
0	38335	2700.07	1500.07
0	38336	2700.07	1400.07
0	38337	2700.07	1300.07
0	38641	2710.07	2500.07
0	38642	2710.07	2400.07
0	38643	2710.07	2300.07
0	38644	2710.07	2200.07
0	38645	2710.07	2100.07
0	38646	2710.07	2000.07
0	38647	2710.07	1900.07
0	38648	2710.07	1800.07
0	38649	2710.07	1700.07
0	38650	2710.07	1600.07
0	38651	2710.07	1500.07
0	38652	2710.07	1400.07
0	38653	2710.07	1300.07
0	38957	2720.07	2500.07
0	38958	2720.07	2400.07
0	38959	2720.07	2300.07
0	38960	2720.07	2200.07
0	38961	2720.07	2100.07
0	38962	2720.07	2000.07
0	38963	2720.07	1900.07
0	38964	2720.07	1800.07
0	38965	2720.07	1700.07
0	38966	2720.07	1600.07
0	38967	2720.07	1500.07
0	38968	2720.07	1400.07
0	38969	2720.07	1300.07
0	39273	2730.07	2500.07
0	39274	2730.07	2400.07
0	39275	2730.07	2300.07
0	39276	2730.07	2200.07
0	39277	2730.07	2100.07
0	39278	2730.07	2000.07
0	39279	2730.07	1900.07
0	39280	2730.07	1800.07
0	39281	2730.07	1700.07
0	39282	2730.07	1600.07
0	39283	2730.07	1500.07
0	39284	2730.07	1400.07
0	39285	2730.07	1300.07
0	39589	2740.07	2500.07
0	39590	2740.07	2400.07
0	39591	2740.07	2300.07
0	39592	2740.07	2200.07
0	39593	2740.07	2100.07
0	39594	2740.07	2000.07
0	39595	2740.07	1900.07
0	39596	2740.07	1800.07
0	39597	2740.07	1700.07
0	39598	2740.07	1600.07
0	39599	2740.07	1500.07
0	39600	2740.07	1400.07
0	39601	2740.07	1300.07
0	39905	2750.07	2500.07
0	39906	2750.07	2400.07
0	39907	2750.07	2300.07
0	39908	2750.07	2200.07
0	39909	2750.07	2100.07
0	39910	2750.07	2000.07
0	39911	2750.07	1900.07
0	39912	2750.07	1800.07
0	39913	2750.07	1700.07
0	39914	2750.07	1600.07
0	39915	2750.07	1500.07
0	39916	2750.07	1400.07
0	39917	2750.07	1300.07
0	40330	2758.07	2758.07
0	40331	2758.07	2748.07
0	40332	2758.07	2738.07
0	40333	2758.07	2728.07
0	40334	2758.07	2718.07
0	40335	2758.07	2708.07
0	40336	2758.07	2698.07
0	40337	2758.07	2688.07
0	40338	2758.07	2678.07
0	40339	2758.07	2668.07
0	40340	2758.07	2658.07
0	40341	2758.07	2648.07
0	40342	2758.07	2638.07
0	40343	2758.07	2628.07
0	40344	2758.07	2618.07
0	40345	2758.07	2608.07
0	40795	2760.07	2600.07
0	40796	2760.07	2500.07
0	40797	2760.07	2400.07
0	40798	2760.07	2300.07
0	40799	2760.07	2200.07
0	40800	2760.07	2100.07
0	40801	2760.07	2000.07
0	40802	2760.07	1900.07
0	40803	2760.07	1800.07
0	40804	2760.07	1700.07
0	40805	2760.07	1600.07
0	40806	2760.07	1500.07
0	40807	2760.07	1400.07
0	40808	2760.07	1300.07
0	41150	2770.07	2600.07
0	41151	2770.07	2500.07
0	41152	2770.07	2400.07
0	41153	2770.07	2300.07
0	41154	2770.07	2200.07
0	41155	2770.07	2100.07
0	41156	2770.07	2000.07
0	41157	2770.07	1900.07
0	41158	2770.07	1800.07
0	41159	2770.07	1700.07
0	41160	2770.07	1600.07
0	41161	2770.07	1500.07
0	41162	2770.07	1400.07
0	41163	2770.07	1300.07
0	41505	2780.07	2600.07
0	41506	2780.07	2500.07
0	41507	2780.07	2400.07
0	41508	2780.07	2300.07
0	41509	2780.07	2200.07
0	41510	2780.07	2100.07
0	41511	2780.07	2000.07
0	41512	2780.07	1900.07
0	41513	2780.07	1800.07
0	41514	2780.07	1700.07
0	41515	2780.07	1600.07
0	41516	2780.07	1500.07
0	41517	2780.07	1400.07
0	41518	2780.07	1300.07
0	41860	2790.07	2600.07
0	41861	2790.07	2500.07
0	41862	2790.07	2400.07
0	41863	2790.07	2300.07
0	41864	2790.07	2200.07
0	41865	2790.07	2100.07
0	41866	2790.07	2000.07
0	41867	2790.07	1900.07
0	41868	2790.07	1800.07
0	41869	2790.07	1700.07
0	41870	2790.07	1600.07
0	41871	2790.07	1500.07
0	41872	2790.07	1400.07
0	41873	2790.07	1300.07
0	42215	2800.07	2600.07
0	42216	2800.07	2500.07
0	42217	2800.07	2400.07
0	42218	2800.07	2300.07
0	42219	2800.07	2200.07
0	42220	2800.07	2100.07
0	42221	2800.07	2000.07
0	42222	2800.07	1900.07
0	42223	2800.07	1800.07
0	42224	2800.07	1700.07
0	42225	2800.07	1600.07
0	42226	2800.07	1500.07
0	42227	2800.07	1400.07
0	42228	2800.07	1300.07
0	42570	2810.07	2600.07
0	42571	2810.07	2500.07
0	42572	2810.07	2400.07
0	42573	2810.07	2300.07
0	42574	2810.07	2200.07
0	42575	2810.07	2100.07
0	42576	2810.07	2000.07
0	42577	2810.07	1900.07
0	42578	2810.07	1800.07
0	42579	2810.07	1700.07
0	42580	2810.07	1600.07
0	42581	2810.07	1500.07
0	42582	2810.07	1400.07
0	42583	2810.07	1300.07
0	42925	2820.07	2600.07
0	42926	2820.07	2500.07
0	42927	2820.07	2400.07
0	42928	2820.07	2300.07
0	42929	2820.07	2200.07
0	42930	2820.07	2100.07
0	42931	2820.07	2000.07
0	42932	2820.07	1900.07
0	42933	2820.07	1800.07
0	42934	2820.07	1700.07
0	42935	2820.07	1600.07
0	42936	2820.07	1500.07
0	42937	2820.07	1400.07
0	42938	2820.07	1300.07
0	43280	2830.07	2600.07
0	43281	2830.07	2500.07
0	43282	2830.07	2400.07
0	43283	2830.07	2300.07
0	43284	2830.07	2200.07
0	43285	2830.07	2100.07
0	43286	2830.07	2000.07
0	43287	2830.07	1900.07
0	43288	2830.07	1800.07
0	43289	2830.07	1700.07
0	43290	2830.07	1600.07
0	43291	2830.07	1500.07
0	43292	2830.07	1400.07
0	43293	2830.07	1300.07
0	43635	2840.07	2600.07
0	43636	2840.07	2500.07
0	43637	2840.07	2400.07
0	43638	2840.07	2300.07
0	43639	2840.07	2200.07
0	43640	2840.07	2100.07
0	43641	2840.07	2000.07
0	43642	2840.07	1900.07
0	43643	2840.07	1800.07
0	43644	2840.07	1700.07
0	43645	2840.07	1600.07
0	43646	2840.07	1500.07
0	43647	2840.07	1400.07
0	43648	2840.07	1300.07
0	43990	2850.07	2600.07
0	43991	2850.07	2500.07
0	43992	2850.07	2400.07
0	43993	2850.07	2300.07
0	43994	2850.07	2200.07
0	43995	2850.07	2100.07
0	43996	2850.07	2000.07
0	43997	2850.07	1900.07
0	43998	2850.07	1800.07
0	43999	2850.07	1700.07
0	44000	2850.07	1600.07
0	44001	2850.07	1500.07
0	44002	2850.07	1400.07
0	44003	2850.07	1300.07
0	44435	2858.07	2858.07
0	44436	2858.07	2848.07
0	44437	2858.07	2838.07
0	44438	2858.07	2828.07
0	44439	2858.07	2818.07
0	44440	2858.07	2808.07
0	44441	2858.07	2798.07
0	44442	2858.07	2788.07
0	44443	2858.07	2778.07
0	44444	2858.07	2768.07
0	44445	2858.07	2758.07
0	44446	2858.07	2748.07
0	44447	2858.07	2738.07
0	44448	2858.07	2728.07
0	44449	2858.07	2718.07
0	44450	2858.07	2708.07
0	44916	2860.07	2700.07
0	44917	2860.07	2600.07
0	44918	2860.07	2500.07
0	44919	2860.07	2400.07
0	44920	2860.07	2300.07
0	44921	2860.07	2200.07
0	44922	2860.07	2100.07
0	44923	2860.07	2000.07
0	44924	2860.07	1900.07
0	44925	2860.07	1800.07
0	44926	2860.07	1700.07
0	44927	2860.07	1600.07
0	44928	2860.07	1500.07
0	44929	2860.07	1400.07
0	44930	2860.07	1300.07
0	45305	2870.07	2700.07
0	45306	2870.07	2600.07
0	45307	2870.07	2500.07
0	45308	2870.07	2400.07
0	45309	2870.07	2300.07
0	45310	2870.07	2200.07
0	45311	2870.07	2100.07
0	45312	2870.07	2000.07
0	45313	2870.07	1900.07
0	45314	2870.07	1800.07
0	45315	2870.07	1700.07
0	45316	2870.07	1600.07
0	45317	2870.07	1500.07
0	45318	2870.07	1400.07
0	45319	2870.07	1300.07
0	45649	2880.07	2700.07
0	45650	2880.07	2600.07
0	45651	2880.07	2500.07
0	45652	2880.07	2400.07
0	45653	2880.07	2300.07
0	45654	2880.07	2200.07
0	45655	2880.07	2100.07
0	45656	2880.07	2000.07
0	45657	2880.07	1900.07
0	45658	2880.07	1800.07
0	45659	2880.07	1700.07
0	45660	2880.07	1600.07
0	45661	2880.07	1500.07
0	45662	2880.07	1400.07
0	45663	2880.07	1300.07
0	45993	2890.07	2700.07
0	45994	2890.07	2600.07
0	45995	2890.07	2500.07
0	45996	2890.07	2400.07
0	45997	2890.07	2300.07
0	45998	2890.07	2200.07
0	45999	2890.07	2100.07
0	46000	2890.07	2000.07
0	46001	2890.07	1900.07
0	46002	2890.07	1800.07
0	46003	2890.07	1700.07
0	46004	2890.07	1600.07
0	46005	2890.07	1500.07
0	46006	2890.07	1400.07
0	46007	2890.07	1300.07
0	46337	2900.07	2700.07
0	46338	2900.07	2600.07
0	46339	2900.07	2500.07
0	46340	2900.07	2400.07
0	46341	2900.07	2300.07
0	46342	2900.07	2200.07
0	46343	2900.07	2100.07
0	46344	2900.07	2000.07
0	46345	2900.07	1900.07
0	46346	2900.07	1800.07
0	46347	2900.07	1700.07
0	46348	2900.07	1600.07
0	46349	2900.07	1500.07
0	46350	2900.07	1400.07
0	46351	2900.07	1300.07
0	46681	2910.07	2700.07
0	46682	2910.07	2600.07
0	46683	2910.07	2500.07
0	46684	2910.07	2400.07
0	46685	2910.07	2300.07
0	46686	2910.07	2200.07
0	46687	2910.07	2100.07
0	46688	2910.07	2000.07
0	46689	2910.07	1900.07
0	46690	2910.07	1800.07
0	46691	2910.07	1700.07
0	46692	2910.07	1600.07
0	46693	2910.07	1500.07
0	46694	2910.07	1400.07
0	46695	2910.07	1300.07
0	47025	2920.07	2700.07
0	47026	2920.07	2600.07
0	47027	2920.07	2500.07
0	47028	2920.07	2400.07
0	47029	2920.07	2300.07
0	47030	2920.07	2200.07
0	47031	2920.07	2100.07
0	47032	2920.07	2000.07
0	47033	2920.07	1900.07
0	47034	2920.07	1800.07
0	47035	2920.07	1700.07
0	47036	2920.07	1600.07
0	47037	2920.07	1500.07
0	47038	2920.07	1400.07
0	47039	2920.07	1300.07
0	47369	2930.07	2700.07
0	47370	2930.07	2600.07
0	47371	2930.07	2500.07
0	47372	2930.07	2400.07
0	47373	2930.07	2300.07
0	47374	2930.07	2200.07
0	47375	2930.07	2100.07
0	47376	2930.07	2000.07
0	47377	2930.07	1900.07
0	47378	2930.07	1800.07
0	47379	2930.07	1700.07
0	47380	2930.07	1600.07
0	47381	2930.07	1500.07
0	47382	2930.07	1400.07
0	47383	2930.07	1300.07
0	47713	2940.07	2700.07
0	47714	2940.07	2600.07
0	47715	2940.07	2500.07
0	47716	2940.07	2400.07
0	47717	2940.07	2300.07
0	47718	2940.07	2200.07
0	47719	2940.07	2100.07
0	47720	2940.07	2000.07
0	47721	2940.07	1900.07
0	47722	2940.07	1800.07
0	47723	2940.07	1700.07
0	47724	2940.07	1600.07
0	47725	2940.07	1500.07
0	47726	2940.07	1400.07
0	47727	2940.07	1300.07
0	48057	2950.07	2700.07
0	48058	2950.07	2600.07
0	48059	2950.07	2500.07
0	48060	2950.07	2400.07
0	48061	2950.07	2300.07
0	48062	2950.07	2200.07
0	48063	2950.07	2100.07
0	48064	2950.07	2000.07
0	48065	2950.07	1900.07
0	48066	2950.07	1800.07
0	48067	2950.07	1700.07
0	48068	2950.07	1600.07
0	48069	2950.07	1500.07
0	48070	2950.07	1400.07
0	48071	2950.07	1300.07
0	48472	2958.07	2958.07
0	48473	2958.07	2948.07
0	48474	2958.07	2938.07
0	48475	2958.07	2928.07
0	48476	2958.07	2918.07
0	48477	2958.07	2908.07
0	48478	2958.07	2898.07
0	48479	2958.07	2888.07
0	48480	2958.07	2878.07
0	48481	2958.07	2868.07
0	48482	2958.07	2858.07
0	48483	2958.07	2848.07
0	48484	2958.07	2838.07
0	48485	2958.07	2828.07
0	48486	2958.07	2818.07
0	48487	2958.07	2808.07
0	48921	2960.07	2800.07
0	48922	2960.07	2700.07
0	48923	2960.07	2600.07
0	48924	2960.07	2500.07
0	48925	2960.07	2400.07
0	48926	2960.07	2300.07
0	48927	2960.07	2200.07
0	48928	2960.07	2100.07
0	48929	2960.07	2000.07
0	48930	2960.07	1900.07
0	48931	2960.07	1800.07
0	48932	2960.07	1700.07
0	48933	2960.07	1600.07
0	48934	2960.07	1500.07
0	48935	2960.07	1400.07
0	48936	2960.07	1300.07
0	49296	2970.07	2800.07
0	49297	2970.07	2700.07
0	49298	2970.07	2600.07
0	49299	2970.07	2500.07
0	49300	2970.07	2400.07
0	49301	2970.07	2300.07
0	49302	2970.07	2200.07
0	49303	2970.07	2100.07
0	49304	2970.07	2000.07
0	49305	2970.07	1900.07
0	49306	2970.07	1800.07
0	49307	2970.07	1700.07
0	49308	2970.07	1600.07
0	49309	2970.07	1500.07
0	49310	2970.07	1400.07
0	49311	2970.07	1300.07
0	49671	2980.07	2800.07
0	49672	2980.07	2700.07
0	49673	2980.07	2600.07
0	49674	2980.07	2500.07
0	49675	2980.07	2400.07
0	49676	2980.07	2300.07
0	49677	2980.07	2200.07
0	49678	2980.07	2100.07
0	49679	2980.07	2000.07
0	49680	2980.07	1900.07
0	49681	2980.07	1800.07
0	49682	2980.07	1700.07
0	49683	2980.07	1600.07
0	49684	2980.07	1500.07
0	49685	2980.07	1400.07
0	49686	2980.07	1300.07
0	50046	2990.07	2800.07
0	50047	2990.07	2700.07
0	50048	2990.07	2600.07
0	50049	2990.07	2500.07
0	50050	2990.07	2400.07
0	50051	2990.07	2300.07
0	50052	2990.07	2200.07
0	50053	2990.07	2100.07
0	50054	2990.07	2000.07
0	50055	2990.07	1900.07
0	50056	2990.07	1800.07
0	50057	2990.07	1700.07
0	50058	2990.07	1600.07
0	50059	2990.07	1500.07
0	50060	2990.07	1400.07
0	50061	2990.07	1300.07
0	50421	3000.07	2800.07
0	50422	3000.07	2700.07
0	50423	3000.07	2600.07
0	50424	3000.07	2500.07
0	50425	3000.07	2400.07
0	50426	3000.07	2300.07
0	50427	3000.07	2200.07
0	50428	3000.07	2100.07
0	50429	3000.07	2000.07
0	50430	3000.07	1900.07
0	50431	3000.07	1800.07
0	50432	3000.07	1700.07
0	50433	3000.07	1600.07
0	50434	3000.07	1500.07
0	50435	3000.07	1400.07
0	50436	3000.07	1300.07
0	50796	3010.07	2800.07
0	50797	3010.07	2700.07
0	50798	3010.07	2600.07
0	50799	3010.07	2500.07
0	50800	3010.07	2400.07
0	50801	3010.07	2300.07
0	50802	3010.07	2200.07
0	50803	3010.07	2100.07
0	50804	3010.07	2000.07
0	50805	3010.07	1900.07
0	50806	3010.07	1800.07
0	50807	3010.07	1700.07
0	50808	3010.07	1600.07
0	50809	3010.07	1500.07
0	50810	3010.07	1400.07
0	50811	3010.07	1300.07
0	51171	3020.07	2800.07
0	51172	3020.07	2700.07
0	51173	3020.07	2600.07
0	51174	3020.07	2500.07
0	51175	3020.07	2400.07
0	51176	3020.07	2300.07
0	51177	3020.07	2200.07
0	51178	3020.07	2100.07
0	51179	3020.07	2000.07
0	51180	3020.07	1900.07
0	51181	3020.07	1800.07
0	51182	3020.07	1700.07
0	51183	3020.07	1600.07
0	51184	3020.07	1500.07
0	51185	3020.07	1400.07
0	51186	3020.07	1300.07
0	51546	3030.07	2800.07
0	51547	3030.07	2700.07
0	51548	3030.07	2600.07
0	51549	3030.07	2500.07
0	51550	3030.07	2400.07
0	51551	3030.07	2300.07
0	51552	3030.07	2200.07
0	51553	3030.07	2100.07
0	51554	3030.07	2000.07
0	51555	3030.07	1900.07
0	51556	3030.07	1800.07
0	51557	3030.07	1700.07
0	51558	3030.07	1600.07
0	51559	3030.07	1500.07
0	51560	3030.07	1400.07
0	51561	3030.07	1300.07
0	51921	3040.07	2800.07
0	51922	3040.07	2700.07
0	51923	3040.07	2600.07
0	51924	3040.07	2500.07
0	51925	3040.07	2400.07
0	51926	3040.07	2300.07
0	51927	3040.07	2200.07
0	51928	3040.07	2100.07
0	51929	3040.07	2000.07
0	51930	3040.07	1900.07
0	51931	3040.07	1800.07
0	51932	3040.07	1700.07
0	51933	3040.07	1600.07
0	51934	3040.07	1500.07
0	51935	3040.07	1400.07
0	51936	3040.07	1300.07
0	52296	3050.07	2800.07
0	52297	3050.07	2700.07
0	52298	3050.07	2600.07
0	52299	3050.07	2500.07
0	52300	3050.07	2400.07
0	52301	3050.07	2300.07
0	52302	3050.07	2200.07
0	52303	3050.07	2100.07
0	52304	3050.07	2000.07
0	52305	3050.07	1900.07
0	52306	3050.07	1800.07
0	52307	3050.07	1700.07
0	52308	3050.07	1600.07
0	52309	3050.07	1500.07
0	52310	3050.07	1400.07
0	52311	3050.07	1300.07
0	52729	3058.07	3058.07
0	52730	3058.07	3048.07
0	52731	3058.07	3038.07
0	52732	3058.07	3028.07
0	52733	3058.07	3018.07
0	52734	3058.07	3008.07
0	52735	3058.07	2998.07
0	52736	3058.07	2988.07
0	52737	3058.07	2978.07
0	52738	3058.07	2968.07
0	52739	3058.07	2958.07
0	52740	3058.07	2948.07
0	52741	3058.07	2938.07
0	52742	3058.07	2928.07
0	52743	3058.07	2918.07
0	52744	3058.07	2908.07
0	53191	3060.07	2900.07
0	53192	3060.07	2800.07
0	53193	3060.07	2700.07
0	53194	3060.07	2600.07
0	53195	3060.07	2500.07
0	53196	3060.07	2400.07
0	53197	3060.07	2300.07
0	53198	3060.07	2200.07
0	53199	3060.07	2100.07
0	53200	3060.07	2000.07
0	53201	3060.07	1900.07
0	53202	3060.07	1800.07
0	53203	3060.07	1700.07
0	53204	3060.07	1600.07
0	53205	3060.07	1500.07
0	53206	3060.07	1400.07
0	53207	3060.07	1300.07
0	53597	3070.07	2900.07
0	53598	3070.07	2800.07
0	53599	3070.07	2700.07
0	53600	3070.07	2600.07
0	53601	3070.07	2500.07
0	53602	3070.07	2400.07
0	53603	3070.07	2300.07
0	53604	3070.07	2200.07
0	53605	3070.07	2100.07
0	53606	3070.07	2000.07
0	53607	3070.07	1900.07
0	53608	3070.07	1800.07
0	53609	3070.07	1700.07
0	53610	3070.07	1600.07
0	53611	3070.07	1500.07
0	53612	3070.07	1400.07
0	53613	3070.07	1300.07
0	54003	3080.07	2900.07
0	54004	3080.07	2800.07
0	54005	3080.07	2700.07
0	54006	3080.07	2600.07
0	54007	3080.07	2500.07
0	54008	3080.07	2400.07
0	54009	3080.07	2300.07
0	54010	3080.07	2200.07
0	54011	3080.07	2100.07
0	54012	3080.07	2000.07
0	54013	3080.07	1900.07
0	54014	3080.07	1800.07
0	54015	3080.07	1700.07
0	54016	3080.07	1600.07
0	54017	3080.07	1500.07
0	54018	3080.07	1400.07
0	54019	3080.07	1300.07
0	54409	3090.07	2900.07
0	54410	3090.07	2800.07
0	54411	3090.07	2700.07
0	54412	3090.07	2600.07
0	54413	3090.07	2500.07
0	54414	3090.07	2400.07
0	54415	3090.07	2300.07
0	54416	3090.07	2200.07
0	54417	3090.07	2100.07
0	54418	3090.07	2000.07
0	54419	3090.07	1900.07
0	54420	3090.07	1800.07
0	54421	3090.07	1700.07
0	54422	3090.07	1600.07
0	54423	3090.07	1500.07
0	54424	3090.07	1400.07
0	54425	3090.07	1300.07
0	54815	3100.07	2900.07
0	54816	3100.07	2800.07
0	54817	3100.07	2700.07
0	54818	3100.07	2600.07
0	54819	3100.07	2500.07
0	54820	3100.07	2400.07
0	54821	3100.07	2300.07
0	54822	3100.07	2200.07
0	54823	3100.07	2100.07
0	54824	3100.07	2000.07
0	54825	3100.07	1900.07
0	54826	3100.07	1800.07
0	54827	3100.07	1700.07
0	54828	3100.07	1600.07
0	54829	3100.07	1500.07
0	54830	3100.07	1400.07
0	54831	3100.07	1300.07
0	55221	3110.07	2900.07
0	55222	3110.07	2800.07
0	55223	3110.07	2700.07
0	55224	3110.07	2600.07
0	55225	3110.07	2500.07
0	55226	3110.07	2400.07
0	55227	3110.07	2300.07
0	55228	3110.07	2200.07
0	55229	3110.07	2100.07
0	55230	3110.07	2000.07
0	55231	3110.07	1900.07
0	55232	3110.07	1800.07
0	55233	3110.07	1700.07
0	55234	3110.07	1600.07
0	55235	3110.07	1500.07
0	55236	3110.07	1400.07
0	55237	3110.07	1300.07
0	55627	3120.07	2900.07
0	55628	3120.07	2800.07
0	55629	3120.07	2700.07
0	55630	3120.07	2600.07
0	55631	3120.07	2500.07
0	55632	3120.07	2400.07
0	55633	3120.07	2300.07
0	55634	3120.07	2200.07
0	55635	3120.07	2100.07
0	55636	3120.07	2000.07
0	55637	3120.07	1900.07
0	55638	3120.07	1800.07
0	55639	3120.07	1700.07
0	55640	3120.07	1600.07
0	55641	3120.07	1500.07
0	55642	3120.07	1400.07
0	55643	3120.07	1300.07
0	56033	3130.07	2900.07
0	56034	3130.07	2800.07
0	56035	3130.07	2700.07
0	56036	3130.07	2600.07
0	56037	3130.07	2500.07
0	56038	3130.07	2400.07
0	56039	3130.07	2300.07
0	56040	3130.07	2200.07
0	56041	3130.07	2100.07
0	56042	3130.07	2000.07
0	56043	3130.07	1900.07
0	56044	3130.07	1800.07
0	56045	3130.07	1700.07
0	56046	3130.07	1600.07
0	56047	3130.07	1500.07
0	56048	3130.07	1400.07
0	56049	3130.07	1300.07
0	56439	3140.07	2900.07
0	56440	3140.07	2800.07
0	56441	3140.07	2700.07
0	56442	3140.07	2600.07
0	56443	3140.07	2500.07
0	56444	3140.07	2400.07
0	56445	3140.07	2300.07
0	56446	3140.07	2200.07
0	56447	3140.07	2100.07
0	56448	3140.07	2000.07
0	56449	3140.07	1900.07
0	56450	3140.07	1800.07
0	56451	3140.07	1700.07
0	56452	3140.07	1600.07
0	56453	3140.07	1500.07
0	56454	3140.07	1400.07
0	56455	3140.07	1300.07
0	56845	3150.07	2900.07
0	56846	3150.07	2800.07
0	56847	3150.07	2700.07
0	56848	3150.07	2600.07
0	56849	3150.07	2500.07
0	56850	3150.07	2400.07
0	56851	3150.07	2300.07
0	56852	3150.07	2200.07
0	56853	3150.07	2100.07
0	56854	3150.07	2000.07
0	56855	3150.07	1900.07
0	56856	3150.07	1800.07
0	56857	3150.07	1700.07
0	56858	3150.07	1600.07
0	56859	3150.07	1500.07
0	56860	3150.07	1400.07
0	56861	3150.07	1300.07
0	57296	3158.07	3158.07
0	57297	3158.07	3148.07
0	57298	3158.07	3138.07
0	57299	3158.07	3128.07
0	57300	3158.07	3118.07
0	57301	3158.07	3108.07
0	57302	3158.07	3098.07
0	57303	3158.07	3088.07
0	57304	3158.07	3078.07
0	57305	3158.07	3068.07
0	57306	3158.07	3058.07
0	57307	3158.07	3048.07
0	57308	3158.07	3038.07
0	57309	3158.07	3028.07
0	57310	3158.07	3018.07
0	57311	3158.07	3008.07
0	57771	3160.07	3000.07
0	57772	3160.07	2900.07
0	57773	3160.07	2800.07
0	57774	3160.07	2700.07
0	57775	3160.07	2600.07
0	57776	3160.07	2500.07
0	57777	3160.07	2400.07
0	57778	3160.07	2300.07
0	57779	3160.07	2200.07
0	57780	3160.07	2100.07
0	57781	3160.07	2000.07
0	57782	3160.07	1900.07
0	57783	3160.07	1800.07
0	57784	3160.07	1700.07
0	57785	3160.07	1600.07
0	57786	3160.07	1500.07
0	57787	3160.07	1400.07
0	57788	3160.07	1300.07
0	58208	3170.07	3000.07
0	58209	3170.07	2900.07
0	58210	3170.07	2800.07
0	58211	3170.07	2700.07
0	58212	3170.07	2600.07
0	58213	3170.07	2500.07
0	58214	3170.07	2400.07
0	58215	3170.07	2300.07
0	58216	3170.07	2200.07
0	58217	3170.07	2100.07
0	58218	3170.07	2000.07
0	58219	3170.07	1900.07
0	58220	3170.07	1800.07
0	58221	3170.07	1700.07
0	58222	3170.07	1600.07
0	58223	3170.07	1500.07
0	58224	3170.07	1400.07
0	58225	3170.07	1300.07
0	58645	3180.07	3000.07
0	58646	3180.07	2900.07
0	58647	3180.07	2800.07
0	58648	3180.07	2700.07
0	58649	3180.07	2600.07
0	58650	3180.07	2500.07
0	58651	3180.07	2400.07
0	58652	3180.07	2300.07
0	58653	3180.07	2200.07
0	58654	3180.07	2100.07
0	58655	3180.07	2000.07
0	58656	3180.07	1900.07
0	58657	3180.07	1800.07
0	58658	3180.07	1700.07
0	58659	3180.07	1600.07
0	58660	3180.07	1500.07
0	58661	3180.07	1400.07
0	58662	3180.07	1300.07
0	59082	3190.07	3000.07
0	59083	3190.07	2900.07
0	59084	3190.07	2800.07
0	59085	3190.07	2700.07
0	59086	3190.07	2600.07
0	59087	3190.07	2500.07
0	59088	3190.07	2400.07
0	59089	3190.07	2300.07
0	59090	3190.07	2200.07
0	59091	3190.07	2100.07
0	59092	3190.07	2000.07
0	59093	3190.07	1900.07
0	59094	3190.07	1800.07
0	59095	3190.07	1700.07
0	59096	3190.07	1600.07
0	59097	3190.07	1500.07
0	59098	3190.07	1400.07
0	59099	3190.07	1300.07
0	59519	3200.07	3000.07
0	59520	3200.07	2900.07
0	59521	3200.07	2800.07
0	59522	3200.07	2700.07
0	59523	3200.07	2600.07
0	59524	3200.07	2500.07
0	59525	3200.07	2400.07
0	59526	3200.07	2300.07
0	59527	3200.07	2200.07
0	59528	3200.07	2100.07
0	59529	3200.07	2000.07
0	59530	3200.07	1900.07
0	59531	3200.07	1800.07
0	59532	3200.07	1700.07
0	59533	3200.07	1600.07
0	59534	3200.07	1500.07
0	59535	3200.07	1400.07
0	59536	3200.07	1300.07
0	59956	3210.07	3000.07
0	59957	3210.07	2900.07
0	59958	3210.07	2800.07
0	59959	3210.07	2700.07
0	59960	3210.07	2600.07
0	59961	3210.07	2500.07
0	59962	3210.07	2400.07
0	59963	3210.07	2300.07
0	59964	3210.07	2200.07
0	59965	3210.07	2100.07
0	59966	3210.07	2000.07
0	59967	3210.07	1900.07
0	59968	3210.07	1800.07
0	59969	3210.07	1700.07
0	59970	3210.07	1600.07
0	59971	3210.07	1500.07
0	59972	3210.07	1400.07
0	59973	3210.07	1300.07
0	60393	3220.07	3000.07
0	60394	3220.07	2900.07
0	60395	3220.07	2800.07
0	60396	3220.07	2700.07
0	60397	3220.07	2600.07
0	60398	3220.07	2500.07
0	60399	3220.07	2400.07
0	60400	3220.07	2300.07
0	60401	3220.07	2200.07
0	60402	3220.07	2100.07
0	60403	3220.07	2000.07
0	60404	3220.07	1900.07
0	60405	3220.07	1800.07
0	60406	3220.07	1700.07
0	60407	3220.07	1600.07
0	60408	3220.07	1500.07
0	60409	3220.07	1400.07
0	60410	3220.07	1300.07
0	60830	3230.07	3000.07
0	60831	3230.07	2900.07
0	60832	3230.07	2800.07
0	60833	3230.07	2700.07
0	60834	3230.07	2600.07
0	60835	3230.07	2500.07
0	60836	3230.07	2400.07
0	60837	3230.07	2300.07
0	60838	3230.07	2200.07
0	60839	3230.07	2100.07
0	60840	3230.07	2000.07
0	60841	3230.07	1900.07
0	60842	3230.07	1800.07
0	60843	3230.07	1700.07
0	60844	3230.07	1600.07
0	60845	3230.07	1500.07
0	60846	3230.07	1400.07
0	60847	3230.07	1300.07
0	61267	3240.07	3000.07
0	61268	3240.07	2900.07
0	61269	3240.07	2800.07
0	61270	3240.07	2700.07
0	61271	3240.07	2600.07
0	61272	3240.07	2500.07
0	61273	3240.07	2400.07
0	61274	3240.07	2300.07
0	61275	3240.07	2200.07
0	61276	3240.07	2100.07
0	61277	3240.07	2000.07
0	61278	3240.07	1900.07
0	61279	3240.07	1800.07
0	61280	3240.07	1700.07
0	61281	3240.07	1600.07
0	61282	3240.07	1500.07
0	61283	3240.07	1400.07
0	61284	3240.07	1300.07
0	61704	3250.07	3000.07
0	61705	3250.07	2900.07
0	61706	3250.07	2800.07
0	61707	3250.07	2700.07
0	61708	3250.07	2600.07
0	61709	3250.07	2500.07
0	61710	3250.07	2400.07
0	61711	3250.07	2300.07
0	61712	3250.07	2200.07
0	61713	3250.07	2100.07
0	61714	3250.07	2000.07
0	61715	3250.07	1900.07
0	61716	3250.07	1800.07
0	61717	3250.07	1700.07
0	61718	3250.07	1600.07
0	61719	3250.07	1500.07
0	61720	3250.07	1400.07
0	61721	3250.07	1300.07
0	75887	4560.09	1300.09
0	75911	4570.09	1300.09
0	75935	4580.09	1300.09
0	75959	4590.09	1300.09
0	75983	4600.09	1300.09
0	76007	4610.09	1300.09
0	76031	4620.09	1300.09
0	76055	4630.09	1300.09
0	76079	4640.09	1300.09

