version 2
run General-0-20250115-18:17:55-140596
attr configname General
attr datetime 20250115-18:17:55
attr experiment General
attr inifile shaw.ini
attr iterationvars ""
attr iterationvarsf ""
attr measurement ""
attr network src.dtnsim
attr processid 140596
attr repetition 0
attr replication #0
attr resultdir results
attr runnumber 0
attr seedset 0
param dtnsim.central.contactsFile "\"contactPlan/Contacts.txt\""
param dtnsim.central.contactsFile_A "\"contactPlan/Contacts.txt\""
param dtnsim.central.contactsFile_B "\"contactPlan/Contacts.txt\""
param dtnsim.central.contactIdsToDelete_from_celestialA "\"6 7 8 28 31 53 59 66 83 85 91 92 98 109 121 123 127 130 135 136 142 171 191 198 199 224 226 231 232 239 259 275 276 280 289 290 304 311 325 326 327 330 333 334 340 345 346 354 358 360 365 375 387 389 390 393 409 416 425 427 430 433 442 446 460 478 479 487 492 505 507 519 541 544 545 548 550 554 562 565 567 573 587 590 594 596 597 598\""
param dtnsim.central.contactIdsToDelete_from_celestialB "\"11 34 36 38 52 60 61 71 74 77 87 90 95 103 106 108 112 122 125 132 134 138 139 141 161 162 165 169 170 181 183 184 194 202 206 208 210 211 216 220 225 227 234 245 246 247 250 261 264 268 270 272 277 278 281 282 288 295 297 300 306 308 319 332 336 341 343 347 361 366 370 377 391 394 398 403 408 412 413 420 426 436 439 447 459 461 472 477 481 495 499 501 504 522 525 528 529 538 539 540 546 551 558 559 563 570 571 574 582 583 589 592\""
param dtnsim.central.celestialA_nodes "\"1 2 3\""
param dtnsim.central.celestialB_nodes "\"4 5 6\""
param dtnsim.central.locallyfaultsAware false
param dtnsim.central.mode_two_celestial true
param dtnsim.nodesNumber 6
param dtnsim.node[1].icon "\"receiverdish\""
param dtnsim.node[2..5].icon "\"satellite\""
param dtnsim.node[6].icon "\"receiverdish\""
param dtnsim.node[*].dtn.routing "\"cgrModel350\""
param dtnsim.node[*].dtn.routingType "\"routeListType:allPaths-firstEnding,volumeAware:allContacts,extensionBlock:on,contactPlan:global\""
param dtnsim.node[1].app.enable true
param dtnsim.node[1].app.bundlesNumber "\"1500\""
param dtnsim.node[1].app.start "\"0\""
param dtnsim.node[1].app.destinationEid "\"6\""
param dtnsim.node[1].app.size "\"1500\""
param dtnsim.node[1].app.interval 1

vector 0 dtnsim.node[6].app appBundleReceivedDelayvec:vector ETV
attr interpolationmode none
attr source appBundleReceivedDelay
attr title "appBundleReceivedDelayvec, vector"
0	998	85	85
0	1004	85	84
0	1010	85	83
0	1016	85	82
0	1022	85	81
0	1028	85	80
0	1034	85	79
0	1040	85	78
0	1046	85	77
0	1052	85	76
0	1058	85	75
0	1064	85	74
0	1070	85	73
0	1076	85	72
0	1082	85	71
0	1088	85	70
0	1094	85	69
0	1100	85	68
0	1106	85	67
0	1112	85	66
0	1118	85	65
0	1124	85	64
0	1130	85	63
0	1136	85	62
0	1142	85	61
0	1148	85	60
0	1154	85	59
0	1160	85	58
0	1166	85	57
0	1172	85	56
0	1178	85	55
0	1184	85	54
0	1190	85	53
0	1196	85	52
0	1202	85	51
0	1208	85	50
0	1214	85	49
0	1220	85	48
0	1226	85	47
0	1232	85	46
0	1238	85	45
0	1244	85	44
0	1250	85	43
0	1256	85	42
0	1262	85	41
0	1268	85	40
0	1274	85	39
0	1280	85	38
0	1286	85	37
0	1292	85	36
0	1298	85	35
0	1304	85	34
0	1310	85	33
0	1316	85	32
0	1322	85	31
0	1328	85	30
0	1334	85	29
0	1340	85	28
0	1346	85	27
0	1352	85	26
0	1358	85	25
0	1364	85	24
0	1370	85	23
0	2083	115	52
0	2099	115	51
0	2106	115	50
0	2112	115	49
0	2118	115	48
0	2124	115	47
0	2130	115	46
0	2136	115	45
0	2142	115	44
0	2148	115	43
0	2154	115	42
0	2160	115	41
0	2166	115	40
0	2172	115	39
0	2178	115	38
0	2184	115	37
0	2190	115	36
0	2196	115	35
0	2202	115	34
0	2208	115	33
0	2214	115	32
0	2220	115	31
0	2226	115	30
0	2232	115	29
0	2238	115	28
0	2244	115	27
0	2250	115	26
0	2256	115	25
0	2262	115	24
0	2268	115	23
0	2274	115	22
0	2280	115	21
0	2286	115	20
0	2292	115	19
0	2298	115	18
0	2304	115	17
0	2310	115	16
0	2316	115	15
0	2322	115	14
0	2328	115	13
0	2334	115	12
0	2340	115	11
0	2346	115	10
0	2352	115	9
0	2358	115	8
0	2364	115	7
0	2370	115	6
0	2376	115	5
0	2382	115	4
0	2388	115	3
0	2394	115	2
0	2400	115	1
0	2418	116	1
0	2445	117	1
0	2474	118	1
0	2501	119	1
0	2529	120	1
0	2556	121	1
0	2584	122	1
0	2612	123	1
0	2638	124	1
0	2666	125	1
0	2692	126	1
0	2719	127	1
0	2746	128	1
0	2775	129	1
0	2802	130	1
0	2829	131	1
0	2857	132	1
0	2886	133	1
0	2912	134	1
0	2938	135	1
0	2964	136	1
0	2990	137	1
0	3019	138	1
0	3046	139	1
0	3073	140	1
0	3100	141	1
0	3127	142	1
0	3155	143	1
0	3181	144	1
0	3207	145	1
0	3233	146	1
0	3259	147	1
0	3285	148	1
0	3311	149	1
0	3341	150	1
0	3365	151	1
0	3386	152	1
0	3407	153	1
0	3428	154	1
0	3449	155	1
0	3470	156	1
0	3494	157	1
0	4591	282	1
0	4613	283	1
0	4636	284	1
0	4658	285	1
0	4680	286	1
0	4702	287	1
0	4724	288	1
0	4744	289	1
0	5276	320	1
0	6294	411	1
0	6321	412	1
0	6348	413	1
0	6377	414	1
0	6404	415	1
0	6431	416	1
0	6458	417	1
0	6485	418	1
0	6514	419	1
0	6541	420	1
0	6568	421	1
0	6596	422	1
0	6623	423	1
0	6649	424	1
0	6676	425	1
0	6702	426	1
0	6728	427	1
0	6754	428	1
0	6781	429	1
0	6807	430	1
0	6833	431	1
0	6859	432	1
0	6886	433	1
0	6912	434	1
0	6938	435	1
0	6964	436	1
0	6992	437	1
0	7018	438	1
0	7044	439	1
0	7070	440	1
0	7096	441	1
0	7122	442	1
0	7148	443	1
0	7174	444	1
0	7200	445	1
0	7226	446	1
0	7252	447	1
0	7278	448	1
0	7304	449	1
0	7331	450	1
0	7357	451	1
0	7383	452	1
0	7409	453	1
0	7437	454	1
0	7463	455	1
0	7490	456	1
0	7515	457	1
0	7540	458	1
0	7565	459	1
0	7590	460	1
0	7614	461	1
0	7638	462	1
0	7662	463	1
0	7689	464	1
0	9936	640	136
0	9951	640	135
0	9958	640	134
0	9964	640	133
0	9970	640	132
0	9976	640	131
0	9982	640	130
0	9988	640	129
0	9994	640	128
0	10000	640	127
0	10006	640	126
0	10012	640	125
0	10018	640	124
0	10024	640	123
0	10030	640	122
0	10036	640	121
0	10042	640	120
0	10048	640	119
0	10054	640	118
0	10060	640	117
0	10066	640	116
0	10072	640	115
0	10078	640	114
0	10084	640	113
0	10090	640	112
0	10096	640	111
0	10102	640	110
0	10108	640	109
0	10114	640	108
0	10120	640	107
0	10126	640	106
0	10132	640	105
0	10138	640	104
0	10144	640	103
0	10150	640	102
0	10156	640	101
0	10162	640	100
0	10168	640	99
0	10174	640	98
0	10180	640	97
0	10186	640	96
0	10192	640	95
0	10198	640	94
0	10204	640	93
0	10210	640	92
0	10216	640	91
0	10222	640	90
0	10228	640	89
0	10234	640	88
0	10240	640	87
0	10246	640	86
0	10252	640	85
0	10258	640	84
0	10264	640	83
0	10270	640	82
0	10276	640	81
0	10282	640	80
0	10288	640	79
0	10294	640	78
0	10300	640	77
0	10306	640	76
0	10312	640	75
0	10318	640	74
0	10324	640	73
0	10330	640	72
0	10336	640	71
0	10342	640	70
0	10348	640	69
0	10354	640	68
0	10360	640	67
0	10366	640	66
0	10372	640	65
0	10378	640	64
0	10384	640	63
0	10390	640	62
0	10396	640	61
0	10402	640	60
0	10408	640	59
0	10414	640	58
0	10420	640	57
0	10426	640	56
0	10432	640	55
0	10438	640	54
0	10444	640	53
0	10450	640	52
0	10456	640	51
0	10462	640	50
0	10468	640	49
0	10474	640	48
0	10480	640	47
0	10486	640	46
0	10492	640	45
0	10498	640	44
0	10504	640	43
0	10510	640	42
0	10516	640	41
0	10522	640	40
0	10528	640	39
0	10534	640	38
0	10540	640	37
0	10546	640	36
0	10552	640	35
0	10558	640	34
0	10564	640	33
0	10570	640	32
0	10576	640	31
0	10582	640	30
0	10588	640	29
0	10594	640	28
0	10600	640	27
0	10606	640	26
0	10612	640	25
0	10618	640	24
0	10624	640	23
0	10630	640	22
0	10636	640	21
0	10642	640	20
0	10648	640	19
0	10654	640	18
0	10660	640	17
0	10666	640	16
0	10672	640	15
0	10678	640	14
0	10684	640	13
0	10690	640	12
0	10696	640	11
0	10702	640	10
0	10708	640	9
0	10714	640	8
0	10720	640	7
0	10726	640	6
0	10732	640	5
0	10738	640	4
0	10744	640	3
0	10750	640	2
0	10756	640	1
0	10772	641	1
0	10798	642	1
0	10824	643	1
0	10850	644	1
0	10877	645	1
0	10902	646	1
0	10927	647	1
0	10953	648	1
0	10981	649	1
0	11008	650	1
0	11036	651	1
0	11062	652	1
0	11090	653	1
0	11116	654	1
0	11148	655	1
0	11176	656	1
0	11204	657	1
0	11233	658	1
0	11354	665	1
0	11390	666	1
0	11426	667	1
0	11462	668	1
0	11500	669	1
0	11541	670	1
0	12388	731	1
0	12430	732	1
0	12472	733	1
0	12514	734	1
0	14004	859	1
0	14031	860	1
0	14058	861	1
0	14086	862	1
0	14112	863	1
0	14137	864	1
0	14162	865	1
0	14187	866	1
0	14213	867	1
0	14237	868	1
0	14262	869	1
0	14286	870	1
0	14311	871	1
0	14334	872	1
0	14357	873	1
0	14380	874	1
0	14405	875	1
0	14430	876	1
0	14453	877	1
0	14477	878	1
0	14501	879	1
0	14525	880	1
0	14550	881	1
0	14574	882	1
0	14598	883	1
0	14622	884	1
0	14646	885	1
0	14670	886	1
0	14694	887	1
0	14719	888	1
0	14743	889	1
0	14766	890	1
0	14789	891	1
0	14812	892	1
0	14835	893	1
0	14858	894	1
0	14883	895	1
0	14906	896	1
0	14929	897	1
0	14952	898	1
0	14975	899	1
0	14998	900	1
0	15021	901	1
0	15049	902	1
0	15393	959	50
0	15399	959	49
0	15405	959	48
0	15411	959	47
0	15417	959	46
0	15423	959	45
0	15429	959	44
0	15435	959	43
0	15810	1032	1
0	15835	1033	1
0	15862	1034	1
0	15888	1035	1
0	16833	1074	1
0	16860	1075	1
0	16887	1076	1
0	16914	1077	1
0	16940	1078	1
0	16966	1079	1
0	16992	1080	1
0	17018	1081	1
0	17045	1082	1
0	17072	1083	1
0	17098	1084	1
0	17124	1085	1
0	17150	1086	1
0	17176	1087	1
0	17203	1088	1
0	17229	1089	1
0	19394	1440	1
0	19422	1441	1
0	19448	1442	1
0	19475	1443	1
0	19504	1444	1
0	19533	1445	1
0	19562	1446	1
0	19592	1447	1
0	19620	1448	1
0	19651	1449	1
0	19683	1450	1
0	19713	1451	1
0	19748	1452	1
0	19782	1453	1
0	19818	1454	1
0	19851	1455	1
0	20448	1476	1
0	20473	1477	1
0	20498	1478	1
0	20521	1479	1
0	20544	1480	1
0	20567	1481	1
0	20591	1482	1
0	20616	1483	1
0	20640	1484	1
0	20665	1485	1
0	20689	1486	1
0	20713	1487	1
0	20737	1488	1
0	20761	1489	1
0	20785	1490	1
0	20809	1491	1
0	20833	1492	1
0	20859	1493	1
0	20883	1494	1
0	20907	1495	1
0	20931	1496	1
0	20959	1497	1
0	20983	1498	1
0	21009	1499	1
0	21026	1500	1


