version 2
run General-0-20250117-04:42:04-187124
attr configname General
attr datetime 20250117-04:42:04
attr experiment General
attr inifile shaw_false.ini
attr iterationvars ""
attr iterationvarsf ""
attr measurement ""
attr network src.dtnsim
attr processid 187124
attr repetition 0
attr replication #0
attr resultdir results
attr runnumber 0
attr seedset 0
param dtnsim.central.contactsFile "\"contactPlan/Contacts.txt\""
param dtnsim.central.contactsFile_A "\"contactPlan/Contacts.txt\""
param dtnsim.central.contactsFile_B "\"contactPlan/Contacts.txt\""
param dtnsim.central.contactIdsToDelete_from_celestialA "\"1 8 11 17 25 26 31 33 39 43 46 51 52 60 62 68 69 71 75 78 79 96 97 102 119 123 131 135 139 143 144 150 154 157 158 160 169 170 175 180 182 183 185 187 190 199 203 206 219 244 245 246 257 259 268 279 283 284 288 291 296 311 313 318 327 333 338 351 361 372 374 389 391 396 405 408 414 415 422 437 446 453 455 463 465 466 470 474 476 478 479\""
param dtnsim.central.contactIdsToDelete_from_celestialB "\"5 9 10 19 27 32 40 44 48 56 66 67 70 74 76 81 83 93 100 109 110 120 121 124 128 130 134 142 145 163 165 167 168 177 181 184 189 194 196 204 207 208 210 214 218 221 226 227 228 241 248 250 252 254 255 266 267 269 272 275 277 287 295 299 300 301 302 303 305 321 324 329 334 339 354 355 357 358 359 366 368 370 384 385 394 397 400 404 406 410 412 417 418 419 420 425 428 431 439 440 441 442 449 450 456 458 460 468 469\""
param dtnsim.central.celestialA_nodes "\"1 2 3\""
param dtnsim.central.celestialB_nodes "\"4 5 6\""
param dtnsim.central.locallyfaultsAware false
param dtnsim.central.mode_two_celestial true
param dtnsim.nodesNumber 6
param dtnsim.node[1].icon "\"receiverdish\""
param dtnsim.node[2..5].icon "\"satellite\""
param dtnsim.node[6].icon "\"receiverdish\""
param dtnsim.node[*].dtn.routing "\"cgrModel350\""
param dtnsim.node[*].dtn.routingType "\"routeListType:allPaths-firstEnding,volumeAware:allContacts,extensionBlock:on,contactPlan:global\""
param dtnsim.node[1].app.enable true
param dtnsim.node[1].app.bundlesNumber "\"8000\""
param dtnsim.node[1].app.start "\"0\""
param dtnsim.node[1].app.destinationEid "\"6\""
param dtnsim.node[1].app.size "\"1500\""
param dtnsim.node[1].app.interval 10

vector 0 dtnsim.node[6].app appBundleReceivedDelayvec:vector ETV
attr interpolationmode none
attr source appBundleReceivedDelay
attr title "appBundleReceivedDelayvec, vector"
0	45033	71333	833
0	45054	71343	833
0	45075	71353	833
0	45096	71363	833
0	45117	71373	833
0	45138	71383	833
0	45159	71393	833
0	45180	71403	833
0	45201	71413	833
0	45222	71423	833
0	45243	71433	833
0	45264	71443	833
0	45285	71453	833
0	45306	71463	833
0	45327	71473	833
0	45348	71483	833
0	45369	71493	833
0	45390	71503	833
0	45411	71513	833
0	45432	71523	833
0	45453	71533	833
0	45474	71543	833
0	45495	71553	833
0	45516	71563	833
0	45537	71573	833
0	45558	71583	833
0	45579	71593	833
0	45601	71603	833
0	48604	73113	1503
0	48620	73113	1493
0	48626	73113	1483
0	48632	73113	1473
0	48638	73113	1463
0	48644	73113	1453
0	48650	73113	1443
0	48656	73113	1433
0	48662	73113	1423
0	48668	73113	1413
0	48674	73113	1403
0	48680	73113	1393
0	48686	73113	1383
0	48692	73113	1373
0	48698	73113	1363
0	48704	73113	1353
0	48710	73113	1343
0	48716	73113	1333
0	48722	73113	1323
0	48728	73113	1313
0	48734	73113	1303
0	48740	73113	1293
0	48746	73113	1283
0	48752	73113	1273
0	48758	73113	1263
0	48764	73113	1253
0	48770	73113	1243
0	48776	73113	1233
0	48782	73113	1223
0	48788	73113	1213
0	48794	73113	1203
0	48800	73113	1193
0	48806	73113	1183
0	48812	73113	1173
0	48818	73113	1163
0	48824	73113	1153
0	48830	73113	1143
0	48836	73113	1133
0	48842	73113	1123
0	48848	73113	1113
0	48854	73113	1103
0	48860	73113	1093
0	48866	73113	1083
0	48872	73113	1073
0	48878	73113	1063
0	48884	73113	1053
0	48890	73113	1043
0	48896	73113	1033
0	48902	73113	1023
0	48908	73113	1013
0	48914	73113	1003
0	48920	73113	993
0	48926	73113	983
0	48932	73113	973
0	48938	73113	963
0	48944	73113	953
0	48950	73113	943
0	48956	73113	933
0	48962	73113	923
0	48968	73113	913
0	48974	73113	903
0	48980	73113	893
0	48986	73113	883
0	48992	73113	873
0	48998	73113	863
0	49004	73113	853
0	49010	73113	843
0	49016	73113	833
0	49053	73123	833
0	49097	73133	833
0	49141	73143	833
0	49185	73153	833
0	49229	73163	833
0	49273	73173	833
0	49317	73183	833
0	49361	73193	833
0	49411	73203	833
0	49459	73213	833
0	49505	73223	833
0	49553	73233	833
0	49603	73243	833
0	49652	73253	833
0	49701	73263	833
0	49751	73273	833
0	49799	73283	833
0	49850	73293	833
0	49901	73303	833
0	49952	73313	833
0	50004	73323	833
0	50054	73333	833
0	50104	73343	833
0	50156	73353	833
0	50207	73363	833
0	50258	73373	833
0	50309	73383	833
0	50360	73393	833
0	50411	73403	833
0	50465	73413	833
0	50519	73423	833
0	50575	73433	833
0	50622	73443	833
0	50668	73453	833
0	50714	73463	833
0	50760	73473	833
0	50806	73483	833
0	50852	73493	833
0	50898	73503	833
0	50944	73513	833
0	50990	73523	833
0	51036	73533	833
0	51082	73543	833
0	51128	73553	833
0	51174	73563	833
0	51222	73573	833
0	51268	73583	833
0	51314	73593	833
0	51360	73603	833
0	51406	73613	833
0	51452	73623	833
0	51498	73633	833
0	51544	73643	833
0	51592	73653	833
0	51640	73663	833
0	51686	73673	833
0	51732	73683	833
0	51778	73693	833
0	51823	73703	833
0	51868	73713	833
0	51913	73723	833
0	51958	73733	833
0	52003	73743	833
0	52048	73753	833
0	52093	73763	833
0	52138	73773	833
0	52183	73783	833
0	52228	73793	833
0	52273	73803	833
0	52318	73813	833
0	52363	73823	833
0	52408	73833	833
0	52453	73843	833
0	52498	73853	833
0	52546	73863	833
0	52592	73873	833
0	52640	73883	833
0	52686	73893	833
0	52732	73903	833
0	52780	73913	833
0	52826	73923	833
0	52874	73933	833
0	52920	73943	833
0	65007	77123	833
0	65087	77133	833
0	65168	77143	833
0	65249	77153	833
0	65330	77163	833
0	65411	77173	833
0	65491	77183	833
0	65570	77193	833
0	65649	77203	833
0	65731	77213	833
0	65811	77223	833
0	65891	77233	833
0	65970	77243	833
0	66049	77253	833
0	66127	77263	833
0	66204	77273	833
0	66283	77283	833
0	67322	77603	833
0	67373	77613	833
0	67422	77623	833
0	67474	77633	833
0	67526	77643	833
0	67578	77653	833
0	67627	77663	833
0	67678	77673	833
0	67728	77683	833
0	67778	77693	833
0	67828	77703	833
0	67878	77713	833
0	67928	77723	833
0	67978	77733	833
0	68028	77743	833
0	68078	77753	833
0	68127	77763	833
0	68176	77773	833
0	68226	77783	833


