version 2
run General-0-20250117-12:46:15-194267
attr configname General
attr datetime 20250117-12:46:15
attr experiment General
attr inifile shaw_mine.ini
attr iterationvars ""
attr iterationvarsf ""
attr measurement ""
attr network src.dtnsim
attr processid 194267
attr repetition 0
attr replication #0
attr resultdir results
attr runnumber 0
attr seedset 0
param dtnsim.central.contactsFile "\"contactPlan/Contacts.txt\""
param dtnsim.central.contactsFile_A "\"contactPlan/Contacts.txt\""
param dtnsim.central.contactsFile_B "\"contactPlan/Contacts.txt\""
param dtnsim.central.contactIdsToDelete_from_celestialA "\"2 3 7 10 11 13 20 26 29 36 40 42 48 53 56 58 59 64 65 67 71 78 80 81 84 92 94 96 109 118 119 122 134 136 141 146 151 176 178 180 190 194 196 199 201 217 239 245 247 248 252 254 255 259 261 265 267 276 277 278 279 282 283 284 286 287 291 298 301 314 334 336 338 344 346 348 352 354 362 367 372 374 380 385 391 400 405 416 417 418 419 422 428 431 441 444 449 453 458 465 474\""
param dtnsim.central.contactIdsToDelete_from_celestialB "\"4 6 14 17 24 25 33 34 45 49 50 51 52 60 66 69 72 83 90 91 101 113 117 120 121 123 124 127 129 131 139 144 157 166 168 169 174 175 177 186 187 191 205 206 220 225 229 232 234 236 240 242 244 246 249 251 262 264 270 271 272 280 293 294 296 305 307 308 310 316 320 322 328 329 339 342 347 350 356 359 363 370 376 384 386 390 393 403 406 423 432 440 447 448 452 455 457 462 467\""
param dtnsim.central.celestialA_nodes "\"1 2 3\""
param dtnsim.central.celestialB_nodes "\"4 5 6\""
param dtnsim.central.locallyfaultsAware true
param dtnsim.central.mode_two_celestial true
param dtnsim.nodesNumber 6
param dtnsim.node[1].icon "\"receiverdish\""
param dtnsim.node[2..5].icon "\"satellite\""
param dtnsim.node[6].icon "\"receiverdish\""
param dtnsim.node[*].dtn.routing "\"cgrModel350\""
param dtnsim.node[*].dtn.routingType "\"routeListType:allPaths-firstEnding,volumeAware:allContacts,extensionBlock:on,contactPlan:global\""
param dtnsim.node[1].app.enable true
param dtnsim.node[1].app.bundlesNumber "\"8000\""
param dtnsim.node[1].app.start "\"0\""
param dtnsim.node[1].app.destinationEid "\"6\""
param dtnsim.node[1].app.size "\"1500\""
param dtnsim.node[1].app.interval 10

vector 0 dtnsim.node[6].app appBundleReceivedDelayvec:vector ETV
attr interpolationmode none
attr source appBundleReceivedDelay
attr title "appBundleReceivedDelayvec, vector"
0	86999	72319	72319
0	87007	72319	72309
0	87013	72319	72299
0	87019	72319	72289
0	87025	72319	72279
0	87031	72319	72269
0	87037	72319	72259
0	87043	72319	72249
0	87049	72319	72239
0	87055	72319	72229
0	87061	72319	72219
0	87067	72319	72209
0	87073	72319	72199
0	87079	72319	72189
0	87085	72319	72179
0	87091	72319	72169
0	87097	72319	72159
0	87103	72319	72149
0	87109	72319	72139
0	87115	72319	72129
0	87121	72319	72119
0	87127	72319	72109
0	87133	72319	72099
0	87139	72319	72089
0	87145	72319	72079
0	87151	72319	72069
0	87157	72319	72059
0	87163	72319	72049
0	87169	72319	72039
0	87175	72319	72029
0	87181	72319	72019
0	87187	72319	72009
0	87193	72319	71999
0	87199	72319	71989
0	87205	72319	71979
0	87211	72319	71969
0	87217	72319	71959
0	87223	72319	71949
0	87229	72319	71939
0	87235	72319	71929
0	87241	72319	71919
0	87247	72319	71909
0	87253	72319	71899
0	87259	72319	71889
0	87265	72319	71879
0	87271	72319	71869
0	87277	72319	71859
0	87283	72319	71849
0	87289	72319	71839
0	87295	72319	71829
0	87301	72319	71819
0	87307	72319	71809
0	87313	72319	71799
0	87319	72319	71789
0	87325	72319	71779
0	87331	72319	71769
0	87337	72319	71759
0	87343	72319	71749
0	87349	72319	71739
0	87355	72319	71729
0	87361	72319	71719
0	87367	72319	71709
0	87373	72319	71699
0	87379	72319	71689
0	87385	72319	71679
0	87391	72319	71669
0	87397	72319	71659
0	87403	72319	71649
0	87409	72319	71639
0	87415	72319	71629
0	87421	72319	71619
0	87427	72319	71609
0	87433	72319	71599
0	87439	72319	71589
0	87445	72319	71579
0	87451	72319	71569
0	87457	72319	71559
0	87463	72319	71549
0	87469	72319	71539
0	87475	72319	71529
0	87481	72319	71519
0	87487	72319	71509
0	87493	72319	71499
0	87499	72319	71489
0	87505	72319	71479
0	87511	72319	71469
0	87517	72319	71459
0	87523	72319	71449
0	87529	72319	71439
0	87535	72319	71429
0	87541	72319	71419
0	87547	72319	71409
0	87553	72319	71399
0	87559	72319	71389
0	87565	72319	71379
0	87571	72319	71369
0	87577	72319	71359
0	87583	72319	71349
0	87589	72319	71339
0	87595	72319	71329
0	87601	72319	71319
0	87607	72319	71309
0	87613	72319	71299
0	87619	72319	71289
0	87625	72319	71279
0	87631	72319	71269
0	87637	72319	71259
0	87643	72319	71249
0	87649	72319	71239
0	87655	72319	71229
0	87661	72319	71219
0	87667	72319	71209
0	87673	72319	71199
0	87679	72319	71189
0	87685	72319	71179
0	87691	72319	71169
0	87697	72319	71159
0	87703	72319	71149
0	87709	72319	71139
0	87715	72319	71129
0	87721	72319	71119
0	87727	72319	71109
0	87733	72319	71099
0	87739	72319	71089
0	87745	72319	71079
0	87751	72319	71069
0	87757	72319	71059
0	87763	72319	71049
0	87769	72319	71039
0	87775	72319	71029
0	87781	72319	71019
0	87787	72319	71009
0	87793	72319	70999
0	87799	72319	70989
0	87805	72319	70979
0	87811	72319	70969
0	87817	72319	70959
0	87823	72319	70949
0	87829	72319	70939
0	87835	72319	70929
0	87841	72319	70919
0	87847	72319	70909
0	87853	72319	70899
0	87859	72319	70889
0	87865	72319	70879
0	87871	72319	70869
0	87877	72319	70859
0	87883	72319	70849
0	87889	72319	70839
0	87895	72319	70829
0	87901	72319	70819
0	87907	72319	70809
0	87913	72319	70799
0	87919	72319	70789
0	87925	72319	70779
0	87931	72319	70769
0	87937	72319	70759
0	87943	72319	70749
0	87949	72319	70739
0	87955	72319	70729
0	87961	72319	70719
0	87967	72319	70709
0	87973	72319	70699
0	87979	72319	70689
0	87985	72319	70679
0	87991	72319	70669
0	87997	72319	70659
0	88003	72319	70649
0	88009	72319	70639
0	88015	72319	70629
0	88021	72319	70619
0	88027	72319	70609
0	88033	72319	70599
0	88039	72319	70589
0	88045	72319	70579
0	88051	72319	70569
0	88057	72319	70559
0	88063	72319	70549
0	88069	72319	70539
0	88075	72319	70529
0	88081	72319	70519
0	88087	72319	70509
0	88093	72319	70499
0	88099	72319	70489
0	88105	72319	70479
0	88111	72319	70469
0	88117	72319	70459
0	88123	72319	70449
0	88129	72319	70439
0	88135	72319	70429
0	88141	72319	70419
0	88147	72319	70409
0	88153	72319	70399
0	88159	72319	70389
0	88165	72319	70379
0	88171	72319	70369
0	88177	72319	70359
0	88183	72319	70349
0	88189	72319	70339
0	88195	72319	70329
0	88201	72319	70319
0	88207	72319	70309
0	88213	72319	70299
0	88219	72319	70289
0	88225	72319	70279
0	88231	72319	70269
0	88237	72319	70259
0	88243	72319	70249
0	88249	72319	70239
0	88255	72319	70229
0	88261	72319	70219
0	88267	72319	70209
0	88273	72319	70199
0	88279	72319	70189
0	88285	72319	70179
0	88291	72319	70169
0	88297	72319	70159
0	88303	72319	70149
0	88309	72319	70139
0	88315	72319	70129
0	88321	72319	70119
0	88327	72319	70109
0	88333	72319	70099
0	88339	72319	70089
0	88345	72319	70079
0	88351	72319	70069
0	88357	72319	70059
0	88363	72319	70049
0	88369	72319	70039
0	88375	72319	70029
0	88381	72319	70019
0	88387	72319	70009
0	88393	72319	69999
0	88399	72319	69989
0	88405	72319	69979
0	88411	72319	69969
0	88417	72319	69959
0	88423	72319	69949
0	88429	72319	69939
0	88435	72319	69929
0	88441	72319	69919
0	88447	72319	69909
0	88453	72319	69899
0	88459	72319	69889
0	88465	72319	69879
0	88471	72319	69869
0	88477	72319	69859
0	88483	72319	69849
0	88489	72319	69839
0	88495	72319	69829
0	88501	72319	69819
0	88507	72319	69809
0	88513	72319	69799
0	88519	72319	69789
0	88525	72319	69779
0	88531	72319	69769
0	88537	72319	69759
0	88543	72319	69749
0	88549	72319	69739
0	88555	72319	69729
0	88561	72319	69719
0	88567	72319	69709
0	88573	72319	69699
0	88579	72319	69689
0	88585	72319	69679
0	88591	72319	69669
0	88597	72319	69659
0	88603	72319	69649
0	88609	72319	69639
0	88615	72319	69629
0	88621	72319	69619
0	88627	72319	69609
0	88633	72319	69599
0	88639	72319	69589
0	88645	72319	69579
0	88651	72319	69569
0	88657	72319	69559
0	88663	72319	69549
0	88669	72319	69539
0	88675	72319	69529
0	88681	72319	69519
0	88687	72319	69509
0	88693	72319	69499
0	88699	72319	69489
0	88705	72319	69479
0	88711	72319	69469
0	88717	72319	69459
0	88723	72319	69449
0	88729	72319	69439
0	88735	72319	69429
0	88741	72319	69419
0	88747	72319	69409
0	88753	72319	69399
0	88759	72319	69389
0	88765	72319	69379
0	88771	72319	69369
0	88777	72319	69359
0	88783	72319	69349
0	88789	72319	69339
0	88795	72319	69329
0	88801	72319	69319
0	88807	72319	69309
0	88813	72319	69299
0	88819	72319	69289
0	88825	72319	69279
0	88831	72319	69269
0	88837	72319	69259
0	88843	72319	69249
0	88849	72319	69239
0	88855	72319	69229
0	88861	72319	69219
0	88867	72319	69209
0	88873	72319	69199
0	88879	72319	69189
0	88885	72319	69179
0	88891	72319	69169
0	88897	72319	69159
0	88903	72319	69149
0	88909	72319	69139
0	88915	72319	69129
0	88921	72319	69119
0	88927	72319	69109
0	88933	72319	69099
0	88939	72319	69089
0	88945	72319	69079
0	88951	72319	69069
0	88957	72319	69059
0	88963	72319	69049
0	88969	72319	69039
0	88975	72319	69029
0	88981	72319	69019
0	88987	72319	69009
0	88993	72319	68999
0	88999	72319	68989
0	89005	72319	68979
0	89011	72319	68969
0	89017	72319	68959
0	89023	72319	68949
0	89029	72319	68939
0	89035	72319	68929
0	89041	72319	68919
0	89047	72319	68909
0	89053	72319	68899
0	89059	72319	68889
0	89065	72319	68879
0	89071	72319	68869
0	89077	72319	68859
0	89083	72319	68849
0	89089	72319	68839
0	89095	72319	68829
0	89101	72319	68819
0	89107	72319	68809
0	89113	72319	68799
0	89119	72319	68789
0	89125	72319	68779
0	89131	72319	68769
0	89137	72319	68759
0	89143	72319	68749
0	89149	72319	68739
0	89155	72319	68729
0	89161	72319	68719
0	89167	72319	68709
0	89173	72319	68699
0	89179	72319	68689
0	89185	72319	68679
0	89191	72319	68669
0	89197	72319	68659
0	89203	72319	68649
0	89209	72319	68639
0	89215	72319	68629
0	89221	72319	68619
0	89227	72319	68609
0	89233	72319	68599
0	89239	72319	68589
0	89245	72319	68579
0	89251	72319	68569
0	89257	72319	68559
0	89263	72319	68549
0	89269	72319	68539
0	89275	72319	68529
0	89281	72319	68519
0	89287	72319	68509
0	89293	72319	68499
0	89299	72319	68489
0	89305	72319	68479
0	89311	72319	68469
0	89317	72319	68459
0	89323	72319	68449
0	89329	72319	68439
0	89335	72319	68429
0	89341	72319	68419
0	89347	72319	68409
0	89353	72319	68399
0	89359	72319	68389
0	89365	72319	68379
0	89371	72319	68369
0	89377	72319	68359
0	89383	72319	68349
0	89389	72319	68339
0	89395	72319	68329
0	89401	72319	68319
0	89407	72319	68309
0	89413	72319	68299
0	89419	72319	68289
0	89425	72319	68279
0	89431	72319	68269
0	89437	72319	68259
0	89443	72319	68249
0	89449	72319	68239
0	89455	72319	68229
0	89461	72319	68219
0	89467	72319	68209
0	89473	72319	68199
0	89479	72319	68189
0	89485	72319	68179
0	89491	72319	68169
0	89497	72319	68159
0	89503	72319	68149
0	89509	72319	68139
0	89515	72319	68129
0	89521	72319	68119
0	89527	72319	68109
0	89533	72319	68099
0	89539	72319	68089
0	89545	72319	68079
0	89551	72319	68069
0	89557	72319	68059
0	89563	72319	68049
0	89569	72319	68039
0	89575	72319	68029
0	89581	72319	68019
0	89587	72319	68009
0	89593	72319	67999
0	89599	72319	67989
0	89605	72319	67979
0	89611	72319	67969
0	89617	72319	67959
0	89623	72319	67949
0	89629	72319	67939
0	89635	72319	67929
0	89641	72319	67919
0	89647	72319	67909
0	89653	72319	67899
0	89659	72319	67889
0	89665	72319	67879
0	89671	72319	67869
0	89677	72319	67859
0	89683	72319	67849
0	89689	72319	67839
0	89695	72319	67829
0	89701	72319	67819
0	89707	72319	67809
0	89713	72319	67799
0	89719	72319	67789
0	89725	72319	67779
0	89731	72319	67769
0	89737	72319	67759
0	89743	72319	67749
0	89749	72319	67739
0	89755	72319	67729
0	89761	72319	67719
0	89767	72319	67709
0	89773	72319	67699
0	89779	72319	67689
0	89785	72319	67679
0	89791	72319	67669
0	89797	72319	67659
0	89803	72319	67649
0	89809	72319	67639
0	89815	72319	67629
0	89821	72319	67619
0	89827	72319	67609
0	89833	72319	67599
0	89839	72319	67589
0	89845	72319	67579
0	89851	72319	67569
0	89857	72319	67559
0	89863	72319	67549
0	89869	72319	67539
0	89875	72319	67529
0	89881	72319	67519
0	89887	72319	67509
0	89893	72319	67499
0	89899	72319	67489
0	89905	72319	67479
0	89911	72319	67469
0	89917	72319	67459
0	89923	72319	67449
0	89929	72319	67439
0	89935	72319	67429
0	89941	72319	67419
0	89947	72319	67409
0	89953	72319	67399
0	89959	72319	67389
0	89965	72319	67379
0	89971	72319	67369
0	89977	72319	67359
0	89983	72319	67349
0	89989	72319	67339
0	89995	72319	67329
0	90001	72319	67319
0	90007	72319	67309
0	90013	72319	67299
0	90019	72319	67289
0	90025	72319	67279
0	90031	72319	67269
0	90037	72319	67259
0	90043	72319	67249
0	90049	72319	67239
0	90055	72319	67229
0	90061	72319	67219
0	90067	72319	67209
0	90073	72319	67199
0	90079	72319	67189
0	90085	72319	67179
0	90091	72319	67169
0	90097	72319	67159
0	90103	72319	67149
0	90109	72319	67139
0	90115	72319	67129
0	90121	72319	67119
0	90127	72319	67109
0	90133	72319	67099
0	90139	72319	67089
0	90145	72319	67079
0	90151	72319	67069
0	90157	72319	67059
0	90163	72319	67049
0	90169	72319	67039
0	90175	72319	67029
0	90181	72319	67019
0	90187	72319	67009
0	90193	72319	66999
0	90199	72319	66989
0	90205	72319	66979
0	90211	72319	66969
0	90217	72319	66959
0	90223	72319	66949
0	90229	72319	66939
0	90235	72319	66929
0	90241	72319	66919
0	90247	72319	66909
0	90253	72319	66899
0	90259	72319	66889
0	90265	72319	66879
0	90271	72319	66869
0	90277	72319	66859
0	90283	72319	66849
0	90289	72319	66839
0	90295	72319	66829
0	90301	72319	66819
0	90307	72319	66809
0	90313	72319	66799
0	90319	72319	66789
0	90325	72319	66779
0	90331	72319	66769
0	90337	72319	66759
0	90343	72319	66749
0	90349	72319	66739
0	90355	72319	66729
0	90361	72319	66719
0	90367	72319	66709
0	90373	72319	66699
0	90379	72319	66689
0	90385	72319	66679
0	90391	72319	66669
0	90397	72319	66659
0	90403	72319	66649
0	90409	72319	66639
0	90415	72319	66629
0	90421	72319	66619
0	90427	72319	66609
0	90433	72319	66599
0	90439	72319	66589
0	90445	72319	66579
0	90451	72319	66569
0	90457	72319	66559
0	90463	72319	66549
0	90469	72319	66539
0	90475	72319	66529
0	90481	72319	66519
0	90487	72319	66509
0	90493	72319	66499
0	90499	72319	66489
0	90505	72319	66479
0	90511	72319	66469
0	90517	72319	66459
0	90523	72319	66449
0	90529	72319	66439
0	90535	72319	66429
0	90541	72319	66419
0	90547	72319	66409
0	90553	72319	66399
0	90559	72319	66389
0	90565	72319	66379
0	90571	72319	66369
0	90577	72319	66359
0	90583	72319	66349
0	90589	72319	66339
0	90595	72319	66329
0	90601	72319	66319
0	90607	72319	66309
0	90613	72319	66299
0	90619	72319	66289
0	90625	72319	66279
0	90631	72319	66269
0	90637	72319	66259
0	90643	72319	66249
0	90649	72319	66239
0	90655	72319	66229
0	90661	72319	66219
0	90667	72319	66209
0	90673	72319	66199
0	90679	72319	66189
0	90685	72319	66179
0	90691	72319	66169
0	90697	72319	66159
0	90703	72319	66149
0	90709	72319	66139
0	90715	72319	66129
0	90721	72319	66119
0	90727	72319	66109
0	90733	72319	66099
0	90739	72319	66089
0	90745	72319	66079
0	90751	72319	66069
0	90757	72319	66059
0	90763	72319	66049
0	90769	72319	66039
0	90775	72319	66029
0	90781	72319	66019
0	90787	72319	66009
0	90793	72319	65999
0	90799	72319	65989
0	90805	72319	65979
0	90811	72319	65969
0	90817	72319	65959
0	90823	72319	65949
0	90829	72319	65939
0	90835	72319	65929
0	90841	72319	65919
0	90847	72319	65909
0	90853	72319	65899
0	90859	72319	65889
0	90865	72319	65879
0	90871	72319	65869
0	90877	72319	65859
0	90883	72319	65849
0	90889	72319	65839
0	90895	72319	65829
0	90901	72319	65819
0	90907	72319	65809
0	90913	72319	65799
0	90919	72319	65789
0	90925	72319	65779
0	90931	72319	65769
0	90937	72319	65759
0	90943	72319	65749
0	90949	72319	65739
0	90955	72319	65729
0	90961	72319	65719
0	90967	72319	65709
0	90973	72319	65699
0	90979	72319	65689
0	90985	72319	65679
0	90991	72319	65669
0	90997	72319	65659
0	91003	72319	65649
0	91009	72319	65639
0	91015	72319	65629
0	91021	72319	65619
0	91027	72319	65609
0	91033	72319	65599
0	91039	72319	65589
0	91045	72319	65579
0	91051	72319	65569
0	91057	72319	65559
0	91063	72319	65549
0	91069	72319	65539
0	91075	72319	65529
0	91081	72319	65519
0	91087	72319	65509
0	91093	72319	65499
0	91099	72319	65489
0	91105	72319	65479
0	91111	72319	65469
0	91117	72319	65459
0	91123	72319	65449
0	91129	72319	65439
0	91135	72319	65429
0	91141	72319	65419
0	91147	72319	65409
0	91153	72319	65399
0	91159	72319	65389
0	91165	72319	65379
0	91171	72319	65369
0	91177	72319	65359
0	91183	72319	65349
0	91189	72319	65339
0	91195	72319	65329
0	91201	72319	65319
0	91207	72319	65309
0	91213	72319	65299
0	91219	72319	65289
0	91225	72319	65279
0	91231	72319	65269
0	91237	72319	65259
0	91243	72319	65249
0	91249	72319	65239
0	91255	72319	65229
0	91261	72319	65219
0	91267	72319	65209
0	91273	72319	65199
0	91279	72319	65189
0	91285	72319	65179
0	91291	72319	65169
0	91297	72319	65159
0	91303	72319	65149
0	91309	72319	65139
0	91315	72319	65129
0	91321	72319	65119
0	91327	72319	65109
0	91333	72319	65099
0	91339	72319	65089
0	91345	72319	65079
0	91351	72319	65069
0	91357	72319	65059
0	91363	72319	65049
0	91369	72319	65039
0	91375	72319	65029
0	91381	72319	65019
0	91387	72319	65009
0	91393	72319	64999
0	91399	72319	64989
0	91405	72319	64979
0	91411	72319	64969
0	91417	72319	64959
0	91423	72319	64949
0	91429	72319	64939
0	91435	72319	64929
0	91441	72319	64919
0	91447	72319	64909
0	91453	72319	64899
0	91459	72319	64889
0	91465	72319	64879
0	91471	72319	64869
0	91477	72319	64859
0	91483	72319	64849
0	91489	72319	64839
0	91495	72319	64829
0	91501	72319	64819
0	91507	72319	64809
0	91513	72319	64799
0	91519	72319	64789
0	91525	72319	64779
0	91531	72319	64769
0	91537	72319	64759
0	91543	72319	64749
0	91549	72319	64739
0	91555	72319	64729
0	91561	72319	64719
0	91567	72319	64709
0	91573	72319	64699
0	91579	72319	64689
0	91585	72319	64679
0	91591	72319	64669
0	91597	72319	64659
0	91603	72319	64649
0	91609	72319	64639
0	91615	72319	64629
0	91621	72319	64619
0	91627	72319	64609
0	91633	72319	64599
0	91639	72319	64589
0	91645	72319	64579
0	91651	72319	64569
0	91657	72319	64559
0	91663	72319	64549
0	91669	72319	64539
0	91675	72319	64529
0	91681	72319	64519
0	91687	72319	64509
0	91693	72319	64499
0	91699	72319	64489
0	91705	72319	64479
0	91711	72319	64469
0	91717	72319	64459
0	91723	72319	64449
0	91729	72319	64439
0	91735	72319	64429
0	91741	72319	64419
0	91747	72319	64409
0	91753	72319	64399
0	91759	72319	64389
0	91765	72319	64379
0	91771	72319	64369
0	91777	72319	64359
0	91783	72319	64349
0	91789	72319	64339
0	91795	72319	64329
0	91801	72319	64319
0	91807	72319	64309
0	91813	72319	64299
0	91819	72319	64289
0	91825	72319	64279
0	91831	72319	64269
0	91837	72319	64259
0	91843	72319	64249
0	91849	72319	64239
0	91855	72319	64229
0	91861	72319	64219
0	91867	72319	64209
0	91873	72319	64199
0	91879	72319	64189
0	91885	72319	64179
0	91891	72319	64169
0	91897	72319	64159
0	91903	72319	64149
0	91909	72319	64139
0	91915	72319	64129
0	91921	72319	64119
0	91927	72319	64109
0	91933	72319	64099
0	91939	72319	64089
0	91945	72319	64079
0	91951	72319	64069
0	91957	72319	64059
0	91963	72319	64049
0	91969	72319	64039
0	91975	72319	64029
0	91981	72319	64019
0	91987	72319	64009
0	91993	72319	63999
0	91999	72319	63989
0	92005	72319	63979
0	92011	72319	63969
0	92017	72319	63959
0	92023	72319	63949
0	92029	72319	63939
0	92035	72319	63929
0	92041	72319	63919
0	92047	72319	63909
0	92053	72319	63899
0	92059	72319	63889
0	92065	72319	63879
0	92071	72319	63869
0	92077	72319	63859
0	92083	72319	63849
0	92089	72319	63839
0	92095	72319	63829
0	92101	72319	63819
0	92107	72319	63809
0	92113	72319	63799
0	92119	72319	63789
0	92125	72319	63779
0	92131	72319	63769
0	92137	72319	63759
0	92143	72319	63749
0	92149	72319	63739
0	92155	72319	63729
0	92161	72319	63719
0	92167	72319	63709
0	92173	72319	63699
0	92179	72319	63689
0	92185	72319	63679
0	92191	72319	63669
0	92197	72319	63659
0	92203	72319	63649
0	92209	72319	63639
0	92215	72319	63629
0	92221	72319	63619
0	92227	72319	63609
0	92233	72319	63599
0	92239	72319	63589
0	92245	72319	63579
0	92251	72319	63569
0	92257	72319	63559
0	92263	72319	63549
0	92269	72319	63539
0	92275	72319	63529
0	92281	72319	63519
0	92287	72319	63509
0	92293	72319	63499
0	92299	72319	63489
0	92305	72319	63479
0	92311	72319	63469
0	92317	72319	63459
0	92323	72319	63449
0	92329	72319	63439
0	92335	72319	63429
0	92341	72319	63419
0	92347	72319	63409
0	92353	72319	63399
0	92359	72319	63389
0	92365	72319	63379
0	92371	72319	63369
0	92377	72319	63359
0	92383	72319	63349
0	92389	72319	63339
0	92395	72319	63329
0	92401	72319	63319
0	92407	72319	63309
0	92413	72319	63299
0	92419	72319	63289
0	92425	72319	63279
0	92431	72319	63269
0	92437	72319	63259
0	92443	72319	63249
0	92449	72319	63239
0	92455	72319	63229
0	92461	72319	63219
0	92467	72319	63209
0	92473	72319	63199
0	92479	72319	63189
0	92485	72319	63179
0	92491	72319	63169
0	92497	72319	63159
0	92503	72319	63149
0	92509	72319	63139
0	92515	72319	63129
0	92521	72319	63119
0	92527	72319	63109
0	92533	72319	63099
0	92539	72319	63089
0	92545	72319	63079
0	92551	72319	63069
0	92557	72319	63059
0	92563	72319	63049
0	92569	72319	63039
0	92575	72319	63029
0	92581	72319	63019
0	92587	72319	63009
0	92593	72319	62999
0	92599	72319	62989
0	92605	72319	62979
0	92611	72319	62969
0	92617	72319	62959
0	92623	72319	62949
0	92629	72319	62939
0	92635	72319	62929
0	92641	72319	62919
0	92647	72319	62909
0	92653	72319	62899
0	92659	72319	62889
0	92665	72319	62879
0	92671	72319	62869
0	92677	72319	62859
0	92683	72319	62849
0	92689	72319	62839
0	92695	72319	62829
0	92701	72319	62819
0	92707	72319	62809
0	92713	72319	62799
0	92719	72319	62789
0	92725	72319	62779
0	92731	72319	62769
0	92737	72319	62759
0	92743	72319	62749
0	92749	72319	62739
0	92755	72319	62729
0	92761	72319	62719
0	92767	72319	62709
0	92773	72319	62699
0	92779	72319	62689
0	92785	72319	62679
0	92791	72319	62669
0	92797	72319	62659
0	92803	72319	62649
0	92809	72319	62639
0	92815	72319	62629
0	92821	72319	62619
0	92827	72319	62609
0	92833	72319	62599
0	92839	72319	62589
0	92845	72319	62579
0	92851	72319	62569
0	92857	72319	62559
0	92863	72319	62549
0	92869	72319	62539
0	92875	72319	62529
0	92881	72319	62519
0	92887	72319	62509
0	92893	72319	62499
0	92899	72319	62489
0	92905	72319	62479
0	92911	72319	62469
0	92917	72319	62459
0	92923	72319	62449
0	92929	72319	62439
0	92935	72319	62429
0	92941	72319	62419
0	92947	72319	62409
0	92953	72319	62399
0	92959	72319	62389
0	92965	72319	62379
0	92971	72319	62369
0	92977	72319	62359
0	92983	72319	62349
0	92989	72319	62339
0	92995	72319	62329
0	93001	72319	62319
0	93007	72319	62309
0	93013	72319	62299
0	93019	72319	62289
0	93025	72319	62279
0	93031	72319	62269
0	93037	72319	62259
0	93043	72319	62249
0	93049	72319	62239
0	93055	72319	62229
0	93061	72319	62219
0	93067	72319	62209
0	93073	72319	62199
0	93079	72319	62189
0	93085	72319	62179
0	93091	72319	62169
0	93097	72319	62159
0	93103	72319	62149
0	93109	72319	62139
0	93115	72319	62129
0	93121	72319	62119
0	93127	72319	62109
0	93133	72319	62099
0	93139	72319	62089
0	93145	72319	62079
0	93151	72319	62069
0	93157	72319	62059
0	93163	72319	62049
0	93169	72319	62039
0	93175	72319	62029
0	93181	72319	62019
0	93187	72319	62009
0	93193	72319	61999
0	93199	72319	61989
0	93205	72319	61979
0	93211	72319	61969
0	93217	72319	61959
0	93223	72319	61949
0	93229	72319	61939
0	93235	72319	61929
0	93241	72319	61919
0	93247	72319	61909
0	93253	72319	61899
0	93259	72319	61889
0	93265	72319	61879
0	93271	72319	61869
0	93277	72319	61859
0	93283	72319	61849
0	93289	72319	61839
0	93295	72319	61829
0	93301	72319	61819
0	93307	72319	61809
0	93313	72319	61799
0	93319	72319	61789
0	93325	72319	61779
0	93331	72319	61769
0	93337	72319	61759
0	93343	72319	61749
0	93349	72319	61739
0	93355	72319	61729
0	93361	72319	61719
0	93367	72319	61709
0	93373	72319	61699
0	93379	72319	61689
0	93385	72319	61679
0	93391	72319	61669
0	93397	72319	61659
0	93403	72319	61649
0	93409	72319	61639
0	93415	72319	61629
0	93421	72319	61619
0	93427	72319	61609
0	93433	72319	61599
0	93439	72319	61589
0	93445	72319	61579
0	93451	72319	61569
0	93457	72319	61559
0	93463	72319	61549
0	93469	72319	61539
0	93475	72319	61529
0	93481	72319	61519
0	93487	72319	61509
0	93493	72319	61499
0	93499	72319	61489
0	93505	72319	61479
0	93511	72319	61469
0	93517	72319	61459
0	93523	72319	61449
0	93529	72319	61439
0	93535	72319	61429
0	93541	72319	61419
0	93547	72319	61409
0	93553	72319	61399
0	93559	72319	61389
0	93565	72319	61379
0	93571	72319	61369
0	93577	72319	61359
0	93583	72319	61349
0	93589	72319	61339
0	93595	72319	61329
0	93601	72319	61319
0	93607	72319	61309
0	93613	72319	61299
0	93619	72319	61289
0	93625	72319	61279
0	93631	72319	61269
0	93637	72319	61259
0	93643	72319	61249
0	93649	72319	61239
0	93655	72319	61229
0	93661	72319	61219
0	93667	72319	61209
0	93673	72319	61199
0	93679	72319	61189
0	93685	72319	61179
0	93691	72319	61169
0	93697	72319	61159
0	93703	72319	61149
0	93709	72319	61139
0	93715	72319	61129
0	93721	72319	61119
0	93727	72319	61109
0	93733	72319	61099
0	93739	72319	61089
0	93745	72319	61079
0	93751	72319	61069
0	93757	72319	61059
0	93763	72319	61049
0	93769	72319	61039
0	93775	72319	61029
0	93781	72319	61019
0	93787	72319	61009
0	93793	72319	60999
0	93799	72319	60989
0	93805	72319	60979
0	93811	72319	60969
0	93817	72319	60959
0	93823	72319	60949
0	93829	72319	60939
0	93835	72319	60929
0	93841	72319	60919
0	93847	72319	60909
0	93853	72319	60899
0	93859	72319	60889
0	93865	72319	60879
0	93871	72319	60869
0	93877	72319	60859
0	93883	72319	60849
0	93889	72319	60839
0	93895	72319	60829
0	93901	72319	60819
0	93907	72319	60809
0	93913	72319	60799
0	93919	72319	60789
0	93925	72319	60779
0	93931	72319	60769
0	93937	72319	60759
0	93943	72319	60749
0	93949	72319	60739
0	93955	72319	60729
0	93961	72319	60719
0	93967	72319	60709
0	93973	72319	60699
0	93979	72319	60689
0	93985	72319	60679
0	93991	72319	60669
0	93997	72319	60659
0	94003	72319	60649
0	94009	72319	60639
0	94015	72319	60629
0	94021	72319	60619
0	94027	72319	60609
0	94033	72319	60599
0	94039	72319	60589
0	94045	72319	60579
0	94051	72319	60569
0	94057	72319	60559
0	94063	72319	60549
0	94069	72319	60539
0	94075	72319	60529
0	94081	72319	60519
0	94087	72319	60509
0	94093	72319	60499
0	94099	72319	60489
0	94105	72319	60479
0	94111	72319	60469
0	94117	72319	60459
0	94123	72319	60449
0	94129	72319	60439
0	94135	72319	60429
0	94141	72319	60419
0	94147	72319	60409
0	94153	72319	60399
0	94159	72319	60389
0	94165	72319	60379
0	94171	72319	60369
0	94177	72319	60359
0	94183	72319	60349
0	94189	72319	60339
0	94195	72319	60329
0	94201	72319	60319
0	94207	72319	60309
0	94213	72319	60299
0	94219	72319	60289
0	94225	72319	60279
0	94231	72319	60269
0	94237	72319	60259
0	94243	72319	60249
0	94249	72319	60239
0	94255	72319	60229
0	94261	72319	60219
0	94267	72319	60209
0	94273	72319	60199
0	94279	72319	60189
0	94285	72319	60179
0	94291	72319	60169
0	94297	72319	60159
0	94303	72319	60149
0	94309	72319	60139
0	94315	72319	60129
0	94321	72319	60119
0	94327	72319	60109
0	94333	72319	60099
0	94339	72319	60089
0	94345	72319	60079
0	94351	72319	60069
0	94357	72319	60059
0	94363	72319	60049
0	94369	72319	60039
0	94375	72319	60029
0	94381	72319	60019
0	94387	72319	60009
0	94393	72319	59999
0	94399	72319	59989
0	94405	72319	59979
0	94411	72319	59969
0	94417	72319	59959
0	94423	72319	59949
0	94429	72319	59939
0	94435	72319	59929
0	94441	72319	59919
0	94447	72319	59909
0	94453	72319	59899
0	94459	72319	59889
0	94465	72319	59879
0	94471	72319	59869
0	94477	72319	59859
0	94483	72319	59849
0	94489	72319	59839
0	94495	72319	59829
0	94501	72319	59819
0	94507	72319	59809
0	94513	72319	59799
0	94519	72319	59789
0	94525	72319	59779
0	94531	72319	59769
0	94537	72319	59759
0	94543	72319	59749
0	94549	72319	59739
0	94555	72319	59729
0	94561	72319	59719
0	94567	72319	59709
0	94573	72319	59699
0	94579	72319	59689
0	94585	72319	59679
0	94591	72319	59669
0	94597	72319	59659
0	94603	72319	59649
0	94609	72319	59639
0	94615	72319	59629
0	94621	72319	59619
0	94627	72319	59609
0	94633	72319	59599
0	94639	72319	59589
0	94645	72319	59579
0	94651	72319	59569
0	94657	72319	59559
0	94663	72319	59549
0	94669	72319	59539
0	94675	72319	59529
0	94681	72319	59519
0	94687	72319	59509
0	94693	72319	59499
0	94699	72319	59489
0	94705	72319	59479
0	94711	72319	59469
0	94717	72319	59459
0	94723	72319	59449
0	94729	72319	59439
0	94735	72319	59429
0	94741	72319	59419
0	94747	72319	59409
0	94753	72319	59399
0	94759	72319	59389
0	94765	72319	59379
0	94771	72319	59369
0	94777	72319	59359
0	94783	72319	59349
0	94789	72319	59339
0	94795	72319	59329
0	94801	72319	59319
0	94807	72319	59309
0	94813	72319	59299
0	94819	72319	59289
0	94825	72319	59279
0	94831	72319	59269
0	94837	72319	59259
0	94843	72319	59249
0	94849	72319	59239
0	94855	72319	59229
0	94861	72319	59219
0	94867	72319	59209
0	94873	72319	59199
0	94879	72319	59189
0	94885	72319	59179
0	94891	72319	59169
0	94897	72319	59159
0	94903	72319	59149
0	94909	72319	59139
0	94915	72319	59129
0	94921	72319	59119
0	94927	72319	59109
0	94933	72319	59099
0	94939	72319	59089
0	94945	72319	59079
0	94951	72319	59069
0	94957	72319	59059
0	94963	72319	59049
0	94969	72319	59039
0	94975	72319	59029
0	94981	72319	59019
0	94987	72319	59009
0	94993	72319	58999
0	94999	72319	58989
0	95005	72319	58979
0	95011	72319	58969
0	95017	72319	58959
0	95023	72319	58949
0	95029	72319	58939
0	95035	72319	58929
0	95041	72319	58919
0	95047	72319	58909
0	95053	72319	58899
0	95059	72319	58889
0	95065	72319	58879
0	95071	72319	58869
0	95077	72319	58859
0	95083	72319	58849
0	95089	72319	58839
0	95095	72319	58829
0	95101	72319	58819
0	95107	72319	58809
0	95113	72319	58799
0	95119	72319	58789
0	95125	72319	58779
0	95131	72319	58769
0	95137	72319	58759
0	95143	72319	58749
0	95149	72319	58739
0	95155	72319	58729
0	95161	72319	58719
0	95167	72319	58709
0	95173	72319	58699
0	95179	72319	58689
0	95185	72319	58679
0	95191	72319	58669
0	95197	72319	58659
0	95203	72319	58649
0	95209	72319	58639
0	95215	72319	58629
0	95221	72319	58619
0	95227	72319	58609
0	95233	72319	58599
0	95239	72319	58589
0	95245	72319	58579
0	95251	72319	58569
0	95257	72319	58559
0	95263	72319	58549
0	95269	72319	58539
0	95275	72319	58529
0	95281	72319	58519
0	95287	72319	58509
0	95293	72319	58499
0	95299	72319	58489
0	95305	72319	58479
0	95311	72319	58469
0	95317	72319	58459
0	95323	72319	58449
0	95329	72319	58439
0	95335	72319	58429
0	95341	72319	58419
0	95347	72319	58409
0	95353	72319	58399
0	95359	72319	58389
0	95365	72319	58379
0	95371	72319	58369
0	95377	72319	58359
0	95383	72319	58349
0	95389	72319	58339
0	95395	72319	58329
0	95401	72319	58319
0	95407	72319	58309
0	95413	72319	58299
0	95419	72319	58289
0	95425	72319	58279
0	95431	72319	58269
0	95437	72319	58259
0	95443	72319	58249
0	95449	72319	58239
0	95455	72319	58229
0	95461	72319	58219
0	95467	72319	58209
0	95473	72319	58199
0	95479	72319	58189
0	95485	72319	58179
0	95491	72319	58169
0	95497	72319	58159
0	95503	72319	58149
0	95509	72319	58139
0	95515	72319	58129
0	95521	72319	58119
0	95527	72319	58109
0	95533	72319	58099
0	95539	72319	58089
0	95545	72319	58079
0	95551	72319	58069
0	95557	72319	58059
0	95563	72319	58049
0	95569	72319	58039
0	95575	72319	58029
0	95581	72319	58019
0	95587	72319	58009
0	95593	72319	57999
0	95599	72319	57989
0	95605	72319	57979
0	95611	72319	57969
0	95617	72319	57959
0	95623	72319	57949
0	95629	72319	57939
0	95635	72319	57929
0	95641	72319	57919
0	95647	72319	57909
0	95653	72319	57899
0	95659	72319	57889
0	95665	72319	57879
0	95671	72319	57869
0	95677	72319	57859
0	95683	72319	57849
0	95689	72319	57839
0	95695	72319	57829
0	95701	72319	57819
0	95707	72319	57809
0	95713	72319	57799
0	95719	72319	57789
0	95725	72319	57779
0	95731	72319	57769
0	95737	72319	57759
0	95743	72319	57749
0	95749	72319	57739
0	95755	72319	57729
0	95761	72319	57719
0	95767	72319	57709
0	95773	72319	57699
0	95779	72319	57689
0	95785	72319	57679
0	95791	72319	57669
0	95797	72319	57659
0	95803	72319	57649
0	95809	72319	57639
0	95815	72319	57629
0	95821	72319	57619
0	95827	72319	57609
0	95833	72319	57599
0	95839	72319	57589
0	95845	72319	57579
0	95851	72319	57569
0	95857	72319	57559
0	95863	72319	57549
0	95869	72319	57539
0	95875	72319	57529
0	95881	72319	57519
0	95887	72319	57509
0	95893	72319	57499
0	95899	72319	57489
0	95905	72319	57479
0	95911	72319	57469
0	95917	72319	57459
0	95923	72319	57449
0	95929	72319	57439
0	95935	72319	57429
0	95941	72319	57419
0	95947	72319	57409
0	95953	72319	57399
0	95959	72319	57389
0	95965	72319	57379
0	95971	72319	57369
0	95977	72319	57359
0	95983	72319	57349
0	95989	72319	57339
0	95995	72319	57329
0	96001	72319	57319
0	96007	72319	57309
0	96013	72319	57299
0	96019	72319	57289
0	96025	72319	57279
0	96031	72319	57269
0	96037	72319	57259
0	96043	72319	57249
0	96049	72319	57239
0	96055	72319	57229
0	96061	72319	57219
0	96067	72319	57209
0	96073	72319	57199
0	96079	72319	57189
0	96085	72319	57179
0	96091	72319	57169
0	96097	72319	57159
0	96103	72319	57149
0	96109	72319	57139
0	96115	72319	57129
0	96121	72319	57119
0	96127	72319	57109
0	96133	72319	57099
0	96139	72319	57089
0	96145	72319	57079
0	96151	72319	57069
0	96157	72319	57059
0	96163	72319	57049
0	96169	72319	57039
0	96175	72319	57029
0	96181	72319	57019
0	96187	72319	57009
0	96193	72319	56999
0	96199	72319	56989
0	96205	72319	56979
0	96211	72319	56969
0	96217	72319	56959
0	96223	72319	56949
0	96229	72319	56939
0	96235	72319	56929
0	96241	72319	56919
0	96247	72319	56909
0	96253	72319	56899
0	96259	72319	56889
0	96265	72319	56879
0	96271	72319	56869
0	96277	72319	56859
0	96283	72319	56849
0	96289	72319	56839
0	96295	72319	56829
0	96301	72319	56819
0	96307	72319	56809
0	96313	72319	56799
0	96319	72319	56789
0	96325	72319	56779
0	96331	72319	56769
0	96337	72319	56759
0	96343	72319	56749
0	96349	72319	56739
0	96355	72319	56729
0	96361	72319	56719
0	96367	72319	56709
0	96373	72319	56699
0	96379	72319	56689
0	96385	72319	56679
0	96391	72319	56669
0	96397	72319	56659
0	96403	72319	56649
0	96409	72319	56639
0	96415	72319	56629
0	96421	72319	56619
0	96427	72319	56609
0	96433	72319	56599
0	96439	72319	56589
0	96445	72319	56579
0	96451	72319	56569
0	96457	72319	56559
0	96463	72319	56549
0	96469	72319	56539
0	96475	72319	56529
0	96481	72319	56519
0	96487	72319	56509
0	96493	72319	56499
0	96499	72319	56489
0	96505	72319	56479
0	96511	72319	56469
0	96517	72319	56459
0	96523	72319	56449
0	96529	72319	56439
0	96535	72319	56429
0	96541	72319	56419
0	96547	72319	56409
0	96553	72319	56399
0	96559	72319	56389
0	96565	72319	56379
0	96571	72319	56369
0	96577	72319	56359
0	96583	72319	56349
0	96589	72319	56339
0	96595	72319	56329
0	96601	72319	56319
0	96607	72319	56309
0	96613	72319	56299
0	96619	72319	56289
0	96625	72319	56279
0	96631	72319	56269
0	96637	72319	56259
0	96643	72319	56249
0	96649	72319	56239
0	96655	72319	56229
0	96661	72319	56219
0	96667	72319	56209
0	96673	72319	56199
0	96679	72319	56189
0	96685	72319	56179
0	96691	72319	56169
0	96697	72319	56159
0	96703	72319	56149
0	96709	72319	56139
0	96715	72319	56129
0	96721	72319	56119
0	96727	72319	56109
0	96733	72319	56099
0	96739	72319	56089
0	96745	72319	56079
0	96751	72319	56069
0	96757	72319	56059
0	96763	72319	56049
0	96769	72319	56039
0	96775	72319	56029
0	96781	72319	56019
0	96787	72319	56009
0	96793	72319	55999
0	96799	72319	55989
0	96805	72319	55979
0	96811	72319	55969
0	96817	72319	55959
0	96823	72319	55949
0	96829	72319	55939
0	96835	72319	55929
0	96841	72319	55919
0	96847	72319	55909
0	96853	72319	55899
0	96859	72319	55889
0	96865	72319	55879
0	96871	72319	55869
0	96877	72319	55859
0	96883	72319	55849
0	96889	72319	55839
0	96895	72319	55829
0	96901	72319	55819
0	96907	72319	55809
0	96913	72319	55799
0	96919	72319	55789
0	96925	72319	55779
0	96931	72319	55769
0	96937	72319	55759
0	96943	72319	55749
0	96949	72319	55739
0	96955	72319	55729
0	96961	72319	55719
0	96967	72319	55709
0	96973	72319	55699
0	96979	72319	55689
0	96985	72319	55679
0	96991	72319	55669
0	96997	72319	55659
0	97003	72319	55649
0	97009	72319	55639
0	97015	72319	55629
0	97021	72319	55619
0	97027	72319	55609
0	97033	72319	55599
0	97039	72319	55589
0	97045	72319	55579
0	97051	72319	55569
0	97057	72319	55559
0	97063	72319	55549
0	97069	72319	55539
0	97075	72319	55529
0	97081	72319	55519
0	97087	72319	55509
0	97093	72319	55499
0	97099	72319	55489
0	97105	72319	55479
0	97111	72319	55469
0	97117	72319	55459
0	97123	72319	55449
0	97129	72319	55439
0	97135	72319	55429
0	97141	72319	55419
0	97147	72319	55409
0	97153	72319	55399
0	97159	72319	55389
0	97165	72319	55379
0	97171	72319	55369
0	97177	72319	55359
0	97183	72319	55349
0	97189	72319	55339
0	97195	72319	55329
0	97201	72319	55319
0	97207	72319	55309
0	97213	72319	55299
0	97219	72319	55289
0	97225	72319	55279
0	97231	72319	55269
0	97237	72319	55259
0	97243	72319	55249
0	97249	72319	55239
0	97255	72319	55229
0	97261	72319	55219
0	97267	72319	55209
0	97273	72319	55199
0	97279	72319	55189
0	97285	72319	55179
0	97291	72319	55169
0	97297	72319	55159
0	97303	72319	55149
0	97309	72319	55139
0	97315	72319	55129
0	97321	72319	55119
0	97327	72319	55109
0	97333	72319	55099
0	97339	72319	55089
0	97345	72319	55079
0	97351	72319	55069
0	97357	72319	55059
0	97363	72319	55049
0	97369	72319	55039
0	97375	72319	55029
0	97381	72319	55019
0	97387	72319	55009
0	97393	72319	54999
0	97399	72319	54989
0	97405	72319	54979
0	97411	72319	54969
0	97417	72319	54959
0	97423	72319	54949
0	97429	72319	54939
0	97435	72319	54929
0	97441	72319	54919
0	97447	72319	54909
0	97453	72319	54899
0	97459	72319	54889
0	97465	72319	54879
0	97471	72319	54869
0	97477	72319	54859
0	97483	72319	54849
0	97489	72319	54839
0	97495	72319	54829
0	97501	72319	54819
0	97507	72319	54809
0	97513	72319	54799
0	97519	72319	54789
0	97525	72319	54779
0	97531	72319	54769
0	97537	72319	54759
0	97543	72319	54749
0	97549	72319	54739
0	97555	72319	54729
0	97561	72319	54719
0	97567	72319	54709
0	97573	72319	54699
0	97579	72319	54689
0	97585	72319	54679
0	97591	72319	54669
0	97597	72319	54659
0	97603	72319	54649
0	97609	72319	54639
0	97615	72319	54629
0	97621	72319	54619
0	97627	72319	54609
0	97633	72319	54599
0	97639	72319	54589
0	97645	72319	54579
0	97651	72319	54569
0	97657	72319	54559
0	97663	72319	54549
0	97669	72319	54539
0	97675	72319	54529
0	97681	72319	54519
0	97687	72319	54509
0	97693	72319	54499
0	97699	72319	54489
0	97705	72319	54479
0	97711	72319	54469
0	97717	72319	54459
0	97723	72319	54449
0	97729	72319	54439
0	97735	72319	54429
0	97741	72319	54419
0	97747	72319	54409
0	97753	72319	54399
0	97759	72319	54389
0	97765	72319	54379
0	97771	72319	54369
0	97777	72319	54359
0	97783	72319	54349
0	97789	72319	54339
0	97795	72319	54329
0	97801	72319	54319
0	97807	72319	54309
0	97813	72319	54299
0	97819	72319	54289
0	97825	72319	54279
0	97831	72319	54269
0	97837	72319	54259
0	97843	72319	54249
0	97849	72319	54239
0	97855	72319	54229
0	97861	72319	54219
0	97867	72319	54209
0	97873	72319	54199
0	97879	72319	54189
0	97885	72319	54179
0	97891	72319	54169
0	97897	72319	54159
0	97903	72319	54149
0	97909	72319	54139
0	97915	72319	54129
0	97921	72319	54119
0	97927	72319	54109
0	97933	72319	54099
0	97939	72319	54089
0	97945	72319	54079
0	97951	72319	54069
0	97957	72319	54059
0	97963	72319	54049
0	97969	72319	54039
0	97975	72319	54029
0	97981	72319	54019
0	97987	72319	54009
0	97993	72319	53999
0	97999	72319	53989
0	98005	72319	53979
0	98011	72319	53969
0	98017	72319	53959
0	98023	72319	53949
0	98029	72319	53939
0	98035	72319	53929
0	98041	72319	53919
0	98047	72319	53909
0	98053	72319	53899
0	98059	72319	53889
0	98065	72319	53879
0	98071	72319	53869
0	98077	72319	53859
0	98083	72319	53849
0	98089	72319	53839
0	98095	72319	53829
0	98101	72319	53819
0	98107	72319	53809
0	98113	72319	53799
0	98119	72319	53789
0	98125	72319	53779
0	98131	72319	53769
0	98137	72319	53759
0	98143	72319	53749
0	98149	72319	53739
0	98155	72319	53729
0	98161	72319	53719
0	98167	72319	53709
0	98173	72319	53699
0	98179	72319	53689
0	98185	72319	53679
0	98191	72319	53669
0	98197	72319	53659
0	98203	72319	53649
0	98209	72319	53639
0	98215	72319	53629
0	98221	72319	53619
0	98227	72319	53609
0	98233	72319	53599
0	98239	72319	53589
0	98245	72319	53579
0	98251	72319	53569
0	98257	72319	53559
0	98263	72319	53549
0	98269	72319	53539
0	98275	72319	53529
0	98281	72319	53519
0	98287	72319	53509
0	98293	72319	53499
0	98299	72319	53489
0	98305	72319	53479
0	98311	72319	53469
0	98317	72319	53459
0	98323	72319	53449
0	98329	72319	53439
0	98335	72319	53429
0	98341	72319	53419
0	98347	72319	53409
0	98353	72319	53399
0	98359	72319	53389
0	98365	72319	53379
0	98371	72319	53369
0	98377	72319	53359
0	98383	72319	53349
0	98389	72319	53339
0	98395	72319	53329
0	98401	72319	53319
0	98407	72319	53309
0	98413	72319	53299
0	98419	72319	53289
0	98425	72319	53279
0	98431	72319	53269
0	98437	72319	53259
0	98443	72319	53249
0	98449	72319	53239
0	98455	72319	53229
0	98461	72319	53219
0	98467	72319	53209
0	98473	72319	53199
0	98479	72319	53189
0	98485	72319	53179
0	98491	72319	53169
0	98497	72319	53159
0	98503	72319	53149
0	98509	72319	53139
0	98515	72319	53129
0	98521	72319	53119
0	98527	72319	53109
0	98533	72319	53099
0	98539	72319	53089
0	98545	72319	53079
0	98551	72319	53069
0	98557	72319	53059
0	98563	72319	53049
0	98569	72319	53039
0	98575	72319	53029
0	98581	72319	53019
0	98587	72319	53009
0	98593	72319	52999
0	98599	72319	52989
0	98605	72319	52979
0	98611	72319	52969
0	98617	72319	52959
0	98623	72319	52949
0	98629	72319	52939
0	98635	72319	52929
0	98641	72319	52919
0	98647	72319	52909
0	98653	72319	52899
0	98659	72319	52889
0	98665	72319	52879
0	98671	72319	52869
0	98677	72319	52859
0	98683	72319	52849
0	98689	72319	52839
0	98695	72319	52829
0	98701	72319	52819
0	98707	72319	52809
0	98713	72319	52799
0	98719	72319	52789
0	98725	72319	52779
0	98731	72319	52769
0	98737	72319	52759
0	98743	72319	52749
0	98749	72319	52739
0	98755	72319	52729
0	98761	72319	52719
0	98767	72319	52709
0	98773	72319	52699
0	98779	72319	52689
0	98785	72319	52679
0	98791	72319	52669
0	98797	72319	52659
0	98803	72319	52649
0	98809	72319	52639
0	98815	72319	52629
0	98821	72319	52619
0	98827	72319	52609
0	98833	72319	52599
0	98839	72319	52589
0	98845	72319	52579
0	98851	72319	52569
0	98857	72319	52559
0	98863	72319	52549
0	98869	72319	52539
0	98875	72319	52529
0	98881	72319	52519
0	98887	72319	52509
0	98893	72319	52499
0	98899	72319	52489
0	98905	72319	52479
0	98911	72319	52469
0	98917	72319	52459
0	98923	72319	52449
0	98929	72319	52439
0	98935	72319	52429
0	98941	72319	52419
0	98947	72319	52409
0	98953	72319	52399
0	98959	72319	52389
0	98965	72319	52379
0	98971	72319	52369
0	98977	72319	52359
0	98983	72319	52349
0	98989	72319	52339
0	98995	72319	52329
0	99001	72319	52319
0	99007	72319	52309
0	99013	72319	52299
0	99019	72319	52289
0	99025	72319	52279
0	99031	72319	52269
0	99037	72319	52259
0	99043	72319	52249
0	99049	72319	52239
0	99055	72319	52229
0	99061	72319	52219
0	99067	72319	52209
0	99073	72319	52199
0	99079	72319	52189
0	99085	72319	52179
0	99091	72319	52169
0	99097	72319	52159
0	99103	72319	52149
0	99109	72319	52139
0	99115	72319	52129
0	99121	72319	52119
0	99127	72319	52109
0	99133	72319	52099
0	99139	72319	52089
0	99145	72319	52079
0	99151	72319	52069
0	99157	72319	52059
0	99163	72319	52049
0	99169	72319	52039
0	99175	72319	52029
0	99181	72319	52019
0	99187	72319	52009
0	99193	72319	51999
0	99199	72319	51989
0	99205	72319	51979
0	99211	72319	51969
0	99217	72319	51959
0	99223	72319	51949
0	99229	72319	51939
0	99235	72319	51929
0	99241	72319	51919
0	99247	72319	51909
0	99253	72319	51899
0	99259	72319	51889
0	99265	72319	51879
0	99271	72319	51869
0	99277	72319	51859
0	99283	72319	51849
0	99289	72319	51839
0	99295	72319	51829
0	99301	72319	51819
0	99307	72319	51809
0	99313	72319	51799
0	99319	72319	51789
0	99325	72319	51779
0	99331	72319	51769
0	99337	72319	51759
0	99343	72319	51749
0	99349	72319	51739
0	99355	72319	51729
0	99361	72319	51719
0	99367	72319	51709
0	99373	72319	51699
0	99379	72319	51689
0	99385	72319	51679
0	99391	72319	51669
0	99397	72319	51659
0	99403	72319	51649
0	99409	72319	51639
0	99415	72319	51629
0	99421	72319	51619
0	99427	72319	51609
0	99433	72319	51599
0	99439	72319	51589
0	99445	72319	51579
0	99451	72319	51569
0	99457	72319	51559
0	99463	72319	51549
0	99469	72319	51539
0	99475	72319	51529
0	99481	72319	51519
0	99487	72319	51509
0	99493	72319	51499
0	99499	72319	51489
0	99505	72319	51479
0	99511	72319	51469
0	99517	72319	51459
0	99523	72319	51449
0	99529	72319	51439
0	99535	72319	51429
0	99541	72319	51419
0	99547	72319	51409
0	99553	72319	51399
0	99559	72319	51389
0	99565	72319	51379
0	99571	72319	51369
0	99577	72319	51359
0	99583	72319	51349
0	99589	72319	51339
0	99595	72319	51329
0	99601	72319	51319
0	99607	72319	51309
0	99613	72319	51299
0	99619	72319	51289
0	99625	72319	51279
0	99631	72319	51269
0	99637	72319	51259
0	99643	72319	51249
0	99649	72319	51239
0	99655	72319	51229
0	99661	72319	51219
0	99667	72319	51209
0	99673	72319	51199
0	99679	72319	51189
0	99685	72319	51179
0	99691	72319	51169
0	99697	72319	51159
0	99703	72319	51149
0	99709	72319	51139
0	99715	72319	51129
0	99721	72319	51119
0	99727	72319	51109
0	99733	72319	51099
0	99739	72319	51089
0	99745	72319	51079
0	99751	72319	51069
0	99757	72319	51059
0	99763	72319	51049
0	99769	72319	51039
0	99775	72319	51029
0	99781	72319	51019
0	99787	72319	51009
0	99793	72319	50999
0	99799	72319	50989
0	99805	72319	50979
0	99811	72319	50969
0	99817	72319	50959
0	99823	72319	50949
0	99829	72319	50939
0	99835	72319	50929
0	99841	72319	50919
0	99847	72319	50909
0	99853	72319	50899
0	99859	72319	50889
0	99865	72319	50879
0	99871	72319	50869
0	99877	72319	50859
0	99883	72319	50849
0	99889	72319	50839
0	99895	72319	50829
0	99901	72319	50819
0	99907	72319	50809
0	99913	72319	50799
0	99919	72319	50789
0	99925	72319	50779
0	99931	72319	50769
0	99937	72319	50759
0	99943	72319	50749
0	99949	72319	50739
0	99955	72319	50729
0	99961	72319	50719
0	99967	72319	50709
0	99973	72319	50699
0	99979	72319	50689
0	99985	72319	50679
0	99991	72319	50669
0	99997	72319	50659
0	100003	72319	50649
0	100009	72319	50639
0	100015	72319	50629
0	100021	72319	50619
0	100027	72319	50609
0	100033	72319	50599
0	100039	72319	50589
0	100045	72319	50579
0	100051	72319	50569
0	100057	72319	50559
0	100063	72319	50549
0	100069	72319	50539
0	100075	72319	50529
0	100081	72319	50519
0	100087	72319	50509
0	100093	72319	50499
0	100099	72319	50489
0	100105	72319	50479
0	100111	72319	50469
0	100117	72319	50459
0	100123	72319	50449
0	100129	72319	50439
0	100135	72319	50429
0	100141	72319	50419
0	100147	72319	50409
0	100153	72319	50399
0	100159	72319	50389
0	100165	72319	50379
0	100171	72319	50369
0	100177	72319	50359
0	100183	72319	50349
0	100189	72319	50339
0	100195	72319	50329
0	100201	72319	50319
0	100207	72319	50309
0	100213	72319	50299
0	100219	72319	50289
0	100225	72319	50279
0	100231	72319	50269
0	100237	72319	50259
0	100243	72319	50249
0	100249	72319	50239
0	100255	72319	50229
0	100261	72319	50219
0	100267	72319	50209
0	100273	72319	50199
0	100279	72319	50189
0	100285	72319	50179
0	100291	72319	50169
0	100297	72319	50159
0	100303	72319	50149
0	100309	72319	50139
0	100315	72319	50129
0	100321	72319	50119
0	100327	72319	50109
0	100333	72319	50099
0	100339	72319	50089
0	100345	72319	50079
0	100351	72319	50069
0	100357	72319	50059
0	100363	72319	50049
0	100369	72319	50039
0	100375	72319	50029
0	100381	72319	50019
0	100387	72319	50009
0	100393	72319	49999
0	100399	72319	49989
0	100405	72319	49979
0	100411	72319	49969
0	100417	72319	49959
0	100423	72319	49949
0	100429	72319	49939
0	100435	72319	49929
0	100441	72319	49919
0	100447	72319	49909
0	100453	72319	49899
0	100459	72319	49889
0	100465	72319	49879
0	100471	72319	49869
0	100477	72319	49859
0	100483	72319	49849
0	100489	72319	49839
0	100495	72319	49829
0	100501	72319	49819
0	100507	72319	49809
0	100513	72319	49799
0	100519	72319	49789
0	100525	72319	49779
0	100531	72319	49769
0	100537	72319	49759
0	100543	72319	49749
0	100549	72319	49739
0	100555	72319	49729
0	100561	72319	49719
0	100567	72319	49709
0	100573	72319	49699
0	100579	72319	49689
0	100585	72319	49679
0	100591	72319	49669
0	100597	72319	49659
0	100603	72319	49649
0	100609	72319	49639
0	100615	72319	49629
0	100621	72319	49619
0	100627	72319	49609
0	100633	72319	49599
0	100639	72319	49589
0	100645	72319	49579
0	100651	72319	49569
0	100657	72319	49559
0	100663	72319	49549
0	100669	72319	49539
0	100675	72319	49529
0	100681	72319	49519
0	100687	72319	49509
0	100693	72319	49499
0	100699	72319	49489
0	100705	72319	49479
0	100711	72319	49469
0	100717	72319	49459
0	100723	72319	49449
0	100729	72319	49439
0	100735	72319	49429
0	100741	72319	49419
0	100747	72319	49409
0	100753	72319	49399
0	100759	72319	49389
0	100765	72319	49379
0	100771	72319	49369
0	100777	72319	49359
0	100783	72319	49349
0	100789	72319	49339
0	100795	72319	49329
0	100801	72319	49319
0	100807	72319	49309
0	100813	72319	49299
0	100819	72319	49289
0	100825	72319	49279
0	100831	72319	49269
0	100837	72319	49259
0	100843	72319	49249
0	100849	72319	49239
0	100855	72319	49229
0	100861	72319	49219
0	100867	72319	49209
0	100873	72319	49199
0	100879	72319	49189
0	100885	72319	49179
0	100891	72319	49169
0	100897	72319	49159
0	100903	72319	49149
0	100909	72319	49139
0	100915	72319	49129
0	100921	72319	49119
0	100927	72319	49109
0	100933	72319	49099
0	100939	72319	49089
0	100945	72319	49079
0	100951	72319	49069
0	100957	72319	49059
0	100963	72319	49049
0	100969	72319	49039
0	100975	72319	49029
0	100981	72319	49019
0	100987	72319	49009
0	100993	72319	48999
0	100999	72319	48989
0	101005	72319	48979
0	101011	72319	48969
0	101017	72319	48959
0	101023	72319	48949
0	101029	72319	48939
0	101035	72319	48929
0	101041	72319	48919
0	101047	72319	48909
0	101053	72319	48899
0	101059	72319	48889
0	101065	72319	48879
0	101071	72319	48869
0	101077	72319	48859
0	101083	72319	48849
0	101089	72319	48839
0	101095	72319	48829
0	101101	72319	48819
0	101107	72319	48809
0	101113	72319	48799
0	101119	72319	48789
0	101125	72319	48779
0	101131	72319	48769
0	101137	72319	48759
0	101143	72319	48749
0	101149	72319	48739
0	101155	72319	48729
0	101161	72319	48719
0	101167	72319	48709
0	101173	72319	48699
0	101179	72319	48689
0	101185	72319	48679
0	101191	72319	48669
0	101197	72319	48659
0	101203	72319	48649
0	101209	72319	48639
0	101215	72319	48629
0	101221	72319	48619
0	101227	72319	48609
0	101233	72319	48599
0	101239	72319	48589
0	101245	72319	48579
0	101251	72319	48569
0	101257	72319	48559
0	101263	72319	48549
0	101269	72319	48539
0	101275	72319	48529
0	101281	72319	48519
0	101287	72319	48509
0	101293	72319	48499
0	101299	72319	48489
0	101305	72319	48479
0	101311	72319	48469
0	101317	72319	48459
0	101323	72319	48449
0	101329	72319	48439
0	101335	72319	48429
0	101341	72319	48419
0	101347	72319	48409
0	101353	72319	48399
0	101359	72319	48389
0	101365	72319	48379
0	101371	72319	48369
0	101377	72319	48359
0	101383	72319	48349
0	101389	72319	48339
0	101395	72319	48329
0	101401	72319	48319
0	101407	72319	48309
0	101413	72319	48299
0	101419	72319	48289
0	101425	72319	48279
0	101431	72319	48269
0	101437	72319	48259
0	101443	72319	48249
0	101449	72319	48239
0	101455	72319	48229
0	101461	72319	48219
0	101467	72319	48209
0	101473	72319	48199
0	101479	72319	48189
0	101485	72319	48179
0	101491	72319	48169
0	101497	72319	48159
0	101503	72319	48149
0	101509	72319	48139
0	101515	72319	48129
0	101521	72319	48119
0	101527	72319	48109
0	101533	72319	48099
0	101539	72319	48089
0	101545	72319	48079
0	101551	72319	48069
0	101557	72319	48059
0	101563	72319	48049
0	101569	72319	48039
0	101575	72319	48029
0	101581	72319	48019
0	101587	72319	48009
0	101593	72319	47999
0	101599	72319	47989
0	101605	72319	47979
0	101611	72319	47969
0	101617	72319	47959
0	101623	72319	47949
0	101629	72319	47939
0	101635	72319	47929
0	101641	72319	47919
0	101647	72319	47909
0	101653	72319	47899
0	101659	72319	47889
0	101665	72319	47879
0	101671	72319	47869
0	101677	72319	47859
0	101683	72319	47849
0	101689	72319	47839
0	101695	72319	47829
0	101701	72319	47819
0	101707	72319	47809
0	101713	72319	47799
0	101719	72319	47789
0	101725	72319	47779
0	101731	72319	47769
0	101737	72319	47759
0	101743	72319	47749
0	101749	72319	47739
0	101755	72319	47729
0	101761	72319	47719
0	101767	72319	47709
0	101773	72319	47699
0	101779	72319	47689
0	101785	72319	47679
0	101791	72319	47669
0	101797	72319	47659
0	101803	72319	47649
0	101809	72319	47639
0	101815	72319	47629
0	101821	72319	47619
0	101827	72319	47609
0	101833	72319	47599
0	101839	72319	47589
0	101845	72319	47579
0	101851	72319	47569
0	101857	72319	47559
0	101863	72319	47549
0	101869	72319	47539
0	101875	72319	47529
0	101881	72319	47519
0	101887	72319	47509
0	101893	72319	47499
0	101899	72319	47489
0	101905	72319	47479
0	101911	72319	47469
0	101917	72319	47459
0	101923	72319	47449
0	101929	72319	47439
0	101935	72319	47429
0	101941	72319	47419
0	101947	72319	47409
0	101953	72319	47399
0	101959	72319	47389
0	101965	72319	47379
0	101971	72319	47369
0	101977	72319	47359
0	101983	72319	47349
0	101989	72319	47339
0	101995	72319	47329
0	102001	72319	47319
0	102007	72319	47309
0	102013	72319	47299
0	102019	72319	47289
0	102025	72319	47279
0	102031	72319	47269
0	102037	72319	47259
0	102043	72319	47249
0	102049	72319	47239
0	102055	72319	47229
0	102061	72319	47219
0	102067	72319	47209
0	102073	72319	47199
0	102079	72319	47189
0	102085	72319	47179
0	102091	72319	47169
0	102097	72319	47159
0	102103	72319	47149
0	102109	72319	47139
0	102115	72319	47129
0	102121	72319	47119
0	102127	72319	47109
0	102133	72319	47099
0	102139	72319	47089
0	102145	72319	47079
0	102151	72319	47069
0	102157	72319	47059
0	102163	72319	47049
0	102169	72319	47039
0	102175	72319	47029
0	102181	72319	47019
0	102187	72319	47009
0	102193	72319	46999
0	102199	72319	46989
0	102205	72319	46979
0	102211	72319	46969
0	102217	72319	46959
0	102223	72319	46949
0	102229	72319	46939
0	102235	72319	46929
0	102241	72319	46919
0	102247	72319	46909
0	102253	72319	46899
0	102259	72319	46889
0	102265	72319	46879
0	102271	72319	46869
0	102277	72319	46859
0	102283	72319	46849
0	102289	72319	46839
0	102295	72319	46829
0	102301	72319	46819
0	102307	72319	46809
0	102313	72319	46799
0	102319	72319	46789
0	102325	72319	46779
0	102331	72319	46769
0	102337	72319	46759
0	102343	72319	46749
0	102349	72319	46739
0	102355	72319	46729
0	102361	72319	46719
0	102367	72319	46709
0	102373	72319	46699
0	102379	72319	46689
0	102385	72319	46679
0	102391	72319	46669
0	102397	72319	46659
0	102403	72319	46649
0	102409	72319	46639
0	102415	72319	46629
0	102421	72319	46619
0	102427	72319	46609
0	102433	72319	46599
0	102439	72319	46589
0	102445	72319	46579
0	102451	72319	46569
0	102457	72319	46559
0	102463	72319	46549
0	102469	72319	46539
0	102475	72319	46529
0	102481	72319	46519
0	102487	72319	46509
0	102493	72319	46499
0	102499	72319	46489
0	102505	72319	46479
0	102511	72319	46469
0	102517	72319	46459
0	102523	72319	46449
0	102529	72319	46439
0	102535	72319	46429
0	102541	72319	46419
0	102547	72319	46409
0	102553	72319	46399
0	102559	72319	46389
0	102565	72319	46379
0	102571	72319	46369
0	102577	72319	46359
0	102583	72319	46349
0	102589	72319	46339
0	102595	72319	46329
0	102601	72319	46319
0	102607	72319	46309
0	102613	72319	46299
0	102619	72319	46289
0	102625	72319	46279
0	102631	72319	46269
0	102637	72319	46259
0	102643	72319	46249
0	102649	72319	46239
0	102655	72319	46229
0	102661	72319	46219
0	102667	72319	46209
0	102673	72319	46199
0	102679	72319	46189
0	102685	72319	46179
0	102691	72319	46169
0	102697	72319	46159
0	102703	72319	46149
0	102709	72319	46139
0	102715	72319	46129
0	102721	72319	46119
0	102727	72319	46109
0	102733	72319	46099
0	102739	72319	46089
0	102745	72319	46079
0	102751	72319	46069
0	102757	72319	46059
0	102763	72319	46049
0	102769	72319	46039
0	102775	72319	46029
0	102781	72319	46019
0	102787	72319	46009
0	102793	72319	45999
0	102799	72319	45989
0	102805	72319	45979
0	102811	72319	45969
0	102817	72319	45959
0	102823	72319	45949
0	102829	72319	45939
0	102835	72319	45929
0	102841	72319	45919
0	102847	72319	45909
0	102853	72319	45899
0	102859	72319	45889
0	102865	72319	45879
0	102871	72319	45869
0	102877	72319	45859
0	102883	72319	45849
0	102889	72319	45839
0	102895	72319	45829
0	102901	72319	45819
0	102907	72319	45809
0	102913	72319	45799
0	102919	72319	45789
0	102925	72319	45779
0	102931	72319	45769
0	102937	72319	45759
0	102943	72319	45749
0	102949	72319	45739
0	102955	72319	45729
0	102961	72319	45719
0	102967	72319	45709
0	102973	72319	45699
0	102979	72319	45689
0	102985	72319	45679
0	102991	72319	45669
0	102997	72319	45659
0	103003	72319	45649
0	103009	72319	45639
0	103015	72319	45629
0	103021	72319	45619
0	103027	72319	45609
0	103033	72319	45599
0	103039	72319	45589
0	103045	72319	45579
0	103051	72319	45569
0	103057	72319	45559
0	103063	72319	45549
0	103069	72319	45539
0	103075	72319	45529
0	103081	72319	45519
0	103087	72319	45509
0	103093	72319	45499
0	103099	72319	45489
0	103105	72319	45479
0	103111	72319	45469
0	103117	72319	45459
0	103123	72319	45449
0	103129	72319	45439
0	103135	72319	45429
0	103141	72319	45419
0	103147	72319	45409
0	103153	72319	45399
0	103159	72319	45389
0	103165	72319	45379
0	103171	72319	45369
0	103177	72319	45359
0	103183	72319	45349
0	103189	72319	45339
0	103195	72319	45329
0	103201	72319	45319
0	103207	72319	45309
0	103213	72319	45299
0	103219	72319	45289
0	103225	72319	45279
0	103231	72319	45269
0	103237	72319	45259
0	103243	72319	45249
0	103249	72319	45239
0	103255	72319	45229
0	103261	72319	45219
0	103267	72319	45209
0	103273	72319	45199
0	103279	72319	45189
0	103285	72319	45179
0	103291	72319	45169
0	103297	72319	45159
0	103303	72319	45149
0	103309	72319	45139
0	103315	72319	45129
0	103321	72319	45119
0	103327	72319	45109
0	103333	72319	45099
0	103339	72319	45089
0	103345	72319	45079
0	103351	72319	45069
0	103357	72319	45059
0	103363	72319	45049
0	103369	72319	45039
0	103375	72319	45029
0	103381	72319	45019
0	103387	72319	45009
0	103393	72319	44999
0	103399	72319	44989
0	103405	72319	44979
0	103411	72319	44969
0	103417	72319	44959
0	103423	72319	44949
0	103429	72319	44939
0	103435	72319	44929
0	103441	72319	44919
0	103447	72319	44909
0	103453	72319	44899
0	103459	72319	44889
0	103465	72319	44879
0	103471	72319	44869
0	103477	72319	44859
0	103483	72319	44849
0	103489	72319	44839
0	103495	72319	44829
0	103501	72319	44819
0	103507	72319	44809
0	103513	72319	44799
0	103519	72319	44789
0	103525	72319	44779
0	103531	72319	44769
0	103537	72319	44759
0	103543	72319	44749
0	103549	72319	44739
0	103555	72319	44729
0	103561	72319	44719
0	103567	72319	44709
0	103573	72319	44699
0	103579	72319	44689
0	103585	72319	44679
0	103591	72319	44669
0	103597	72319	44659
0	103603	72319	44649
0	103609	72319	44639
0	103615	72319	44629
0	103621	72319	44619
0	103627	72319	44609
0	103633	72319	44599
0	103639	72319	44589
0	103645	72319	44579
0	103651	72319	44569
0	103657	72319	44559
0	103663	72319	44549
0	103669	72319	44539
0	103675	72319	44529
0	103681	72319	44519
0	103687	72319	44509
0	103693	72319	44499
0	103699	72319	44489
0	103705	72319	44479
0	103711	72319	44469
0	103717	72319	44459
0	103723	72319	44449
0	103729	72319	44439
0	103735	72319	44429
0	103741	72319	44419
0	103747	72319	44409
0	103753	72319	44399
0	103759	72319	44389
0	103765	72319	44379
0	103771	72319	44369
0	103777	72319	44359
0	103783	72319	44349
0	103789	72319	44339
0	103795	72319	44329
0	103801	72319	44319
0	103807	72319	44309
0	103813	72319	44299
0	103819	72319	44289
0	103825	72319	44279
0	103831	72319	44269
0	103837	72319	44259
0	103843	72319	44249
0	103849	72319	44239
0	103855	72319	44229
0	103861	72319	44219
0	103867	72319	44209
0	103873	72319	44199
0	103879	72319	44189
0	103885	72319	44179
0	103891	72319	44169
0	103897	72319	44159
0	103903	72319	44149
0	103909	72319	44139
0	103915	72319	44129
0	103921	72319	44119
0	103927	72319	44109
0	103933	72319	44099
0	103939	72319	44089
0	103945	72319	44079
0	103951	72319	44069
0	103957	72319	44059
0	103963	72319	44049
0	103969	72319	44039
0	103975	72319	44029
0	103981	72319	44019
0	103987	72319	44009
0	103993	72319	43999
0	103999	72319	43989
0	104005	72319	43979
0	104011	72319	43969
0	104017	72319	43959
0	104023	72319	43949
0	104029	72319	43939
0	104035	72319	43929
0	104041	72319	43919
0	104047	72319	43909
0	104053	72319	43899
0	104059	72319	43889
0	104065	72319	43879
0	104071	72319	43869
0	104077	72319	43859
0	104083	72319	43849
0	104089	72319	43839
0	104095	72319	43829
0	104101	72319	43819
0	104107	72319	43809
0	104113	72319	43799
0	104119	72319	43789
0	104125	72319	43779
0	104131	72319	43769
0	104137	72319	43759
0	104143	72319	43749
0	104149	72319	43739
0	104155	72319	43729
0	104161	72319	43719
0	104167	72319	43709
0	104173	72319	43699
0	104179	72319	43689
0	104185	72319	43679
0	104191	72319	43669
0	104197	72319	43659
0	104203	72319	43649
0	104209	72319	43639
0	104215	72319	43629
0	104221	72319	43619
0	104227	72319	43609
0	104233	72319	43599
0	104239	72319	43589
0	104245	72319	43579
0	104251	72319	43569
0	104257	72319	43559
0	104263	72319	43549
0	104269	72319	43539
0	104275	72319	43529
0	104281	72319	43519
0	104287	72319	43509
0	104293	72319	43499
0	104299	72319	43489
0	104305	72319	43479
0	104311	72319	43469
0	104317	72319	43459
0	104323	72319	43449
0	104329	72319	43439
0	104335	72319	43429
0	104341	72319	43419
0	104347	72319	43409
0	104353	72319	43399
0	104359	72319	43389
0	104365	72319	43379
0	104371	72319	43369
0	104377	72319	43359
0	104383	72319	43349
0	104389	72319	43339
0	104395	72319	43329
0	104401	72319	43319
0	104407	72319	43309
0	104413	72319	43299
0	104419	72319	43289
0	104425	72319	43279
0	104431	72319	43269
0	104437	72319	43259
0	104443	72319	43249
0	104449	72319	43239
0	104455	72319	43229
0	104461	72319	43219
0	104467	72319	43209
0	104473	72319	43199
0	104479	72319	43189
0	104485	72319	43179
0	104491	72319	43169
0	104497	72319	43159
0	104503	72319	43149
0	104509	72319	43139
0	104515	72319	43129
0	104521	72319	43119
0	104527	72319	43109
0	104533	72319	43099
0	104539	72319	43089
0	104545	72319	43079
0	104551	72319	43069
0	104557	72319	43059
0	104563	72319	43049
0	104569	72319	43039
0	104575	72319	43029
0	104581	72319	43019
0	104587	72319	43009
0	104593	72319	42999
0	104599	72319	42989
0	104605	72319	42979
0	104611	72319	42969
0	104617	72319	42959
0	104623	72319	42949
0	104629	72319	42939
0	104635	72319	42929
0	104641	72319	42919
0	104647	72319	42909
0	104653	72319	42899
0	104659	72319	42889
0	104665	72319	42879
0	104671	72319	42869
0	104677	72319	42859
0	104683	72319	42849
0	104689	72319	42839
0	104695	72319	42829
0	104701	72319	42819
0	104707	72319	42809
0	104713	72319	42799
0	104719	72319	42789
0	104725	72319	42779
0	104731	72319	42769
0	104737	72319	42759
0	104743	72319	42749
0	104749	72319	42739
0	104755	72319	42729
0	104761	72319	42719
0	104767	72319	42709
0	104773	72319	42699
0	104779	72319	42689
0	104785	72319	42679
0	104791	72319	42669
0	104797	72319	42659
0	104803	72319	42649
0	104809	72319	42639
0	104815	72319	42629
0	104821	72319	42619
0	104827	72319	42609
0	104833	72319	42599
0	104839	72319	42589
0	104845	72319	42579
0	104851	72319	42569
0	104857	72319	42559
0	104863	72319	42549
0	104869	72319	42539
0	104875	72319	42529
0	104881	72319	42519
0	104887	72319	42509
0	104893	72319	42499
0	104899	72319	42489
0	104905	72319	42479
0	104911	72319	42469
0	104917	72319	42459
0	104923	72319	42449
0	104929	72319	42439
0	104935	72319	42429
0	104941	72319	42419
0	104947	72319	42409
0	104953	72319	42399
0	104959	72319	42389
0	104965	72319	42379
0	104971	72319	42369
0	104977	72319	42359
0	104983	72319	42349
0	104989	72319	42339
0	104995	72319	42329
0	105001	72319	42319
0	105007	72319	42309
0	105013	72319	42299
0	105019	72319	42289
0	105025	72319	42279
0	105031	72319	42269
0	105037	72319	42259
0	105043	72319	42249
0	105049	72319	42239
0	105055	72319	42229
0	105061	72319	42219
0	105067	72319	42209
0	105073	72319	42199
0	105079	72319	42189
0	105085	72319	42179
0	105091	72319	42169
0	105097	72319	42159
0	105103	72319	42149
0	105109	72319	42139
0	105115	72319	42129
0	105121	72319	42119
0	105127	72319	42109
0	105133	72319	42099
0	105139	72319	42089
0	105145	72319	42079
0	105151	72319	42069
0	105157	72319	42059
0	105163	72319	42049
0	105169	72319	42039
0	105175	72319	42029
0	105181	72319	42019
0	105187	72319	42009
0	105193	72319	41999
0	105199	72319	41989
0	105205	72319	41979
0	105211	72319	41969
0	105217	72319	41959
0	105223	72319	41949
0	105229	72319	41939
0	105235	72319	41929
0	105241	72319	41919
0	105247	72319	41909
0	105253	72319	41899
0	105259	72319	41889
0	105265	72319	41879
0	105271	72319	41869
0	105277	72319	41859
0	105283	72319	41849
0	105289	72319	41839
0	105295	72319	41829
0	105301	72319	41819
0	105307	72319	41809
0	105313	72319	41799
0	105319	72319	41789
0	105325	72319	41779
0	105331	72319	41769
0	105337	72319	41759
0	105343	72319	41749
0	105349	72319	41739
0	105355	72319	41729
0	105361	72319	41719
0	105367	72319	41709
0	105373	72319	41699
0	105379	72319	41689
0	105385	72319	41679
0	105391	72319	41669
0	105397	72319	41659
0	105403	72319	41649
0	105409	72319	41639
0	105415	72319	41629
0	105421	72319	41619
0	105427	72319	41609
0	105433	72319	41599
0	105439	72319	41589
0	105445	72319	41579
0	105451	72319	41569
0	105457	72319	41559
0	105463	72319	41549
0	105469	72319	41539
0	105475	72319	41529
0	105481	72319	41519
0	105487	72319	41509
0	105493	72319	41499
0	105499	72319	41489
0	105505	72319	41479
0	105511	72319	41469
0	105517	72319	41459
0	105523	72319	41449
0	105529	72319	41439
0	105535	72319	41429
0	105541	72319	41419
0	105547	72319	41409
0	105553	72319	41399
0	105559	72319	41389
0	105565	72319	41379
0	105571	72319	41369
0	105577	72319	41359
0	105583	72319	41349
0	105589	72319	41339
0	105595	72319	41329
0	105601	72319	41319
0	105607	72319	41309
0	105613	72319	41299
0	105619	72319	41289
0	105625	72319	41279
0	105631	72319	41269
0	105637	72319	41259
0	105643	72319	41249
0	105649	72319	41239
0	105655	72319	41229
0	105661	72319	41219
0	105667	72319	41209
0	105673	72319	41199
0	105679	72319	41189
0	105685	72319	41179
0	105691	72319	41169
0	105697	72319	41159
0	105703	72319	41149
0	105709	72319	41139
0	105715	72319	41129
0	105721	72319	41119
0	105727	72319	41109
0	105733	72319	41099
0	105739	72319	41089
0	105745	72319	41079
0	105751	72319	41069
0	105757	72319	41059
0	105763	72319	41049
0	105769	72319	41039
0	105775	72319	41029
0	105781	72319	41019
0	105787	72319	41009
0	105793	72319	40999
0	105799	72319	40989
0	105805	72319	40979
0	105811	72319	40969
0	105817	72319	40959
0	105823	72319	40949
0	105829	72319	40939
0	105835	72319	40929
0	105841	72319	40919
0	105847	72319	40909
0	105853	72319	40899
0	105859	72319	40889
0	105865	72319	40879
0	105871	72319	40869
0	105877	72319	40859
0	105883	72319	40849
0	105889	72319	40839
0	105895	72319	40829
0	105901	72319	40819
0	105907	72319	40809
0	105913	72319	40799
0	105919	72319	40789
0	105925	72319	40779
0	105931	72319	40769
0	105937	72319	40759
0	105943	72319	40749
0	105949	72319	40739
0	105955	72319	40729
0	105961	72319	40719
0	105967	72319	40709
0	105973	72319	40699
0	105979	72319	40689
0	105985	72319	40679
0	105991	72319	40669
0	105997	72319	40659
0	106003	72319	40649
0	106009	72319	40639
0	106015	72319	40629
0	106021	72319	40619
0	106027	72319	40609
0	106033	72319	40599
0	106039	72319	40589
0	106045	72319	40579
0	106051	72319	40569
0	106057	72319	40559
0	106063	72319	40549
0	106069	72319	40539
0	106075	72319	40529
0	106081	72319	40519
0	106087	72319	40509
0	106093	72319	40499
0	106099	72319	40489
0	106105	72319	40479
0	106111	72319	40469
0	106117	72319	40459
0	106123	72319	40449
0	106129	72319	40439
0	106135	72319	40429
0	106141	72319	40419
0	106147	72319	40409
0	106153	72319	40399
0	106159	72319	40389
0	106165	72319	40379
0	106171	72319	40369
0	106177	72319	40359
0	106183	72319	40349
0	106189	72319	40339
0	106195	72319	40329
0	106201	72319	40319
0	106207	72319	40309
0	106213	72319	40299
0	106219	72319	40289
0	106225	72319	40279
0	106231	72319	40269
0	106237	72319	40259
0	106243	72319	40249
0	106249	72319	40239
0	106255	72319	40229
0	106261	72319	40219
0	106267	72319	40209
0	106273	72319	40199
0	106279	72319	40189
0	106285	72319	40179
0	106291	72319	40169
0	106297	72319	40159
0	106303	72319	40149
0	106309	72319	40139
0	106315	72319	40129
0	106321	72319	40119
0	106327	72319	40109
0	106333	72319	40099
0	106339	72319	40089
0	106345	72319	40079
0	106351	72319	40069
0	106357	72319	40059
0	106363	72319	40049
0	106369	72319	40039
0	106375	72319	40029
0	106381	72319	40019
0	106387	72319	40009
0	106393	72319	39999
0	106399	72319	39989
0	106405	72319	39979
0	106411	72319	39969
0	106417	72319	39959
0	106423	72319	39949
0	106429	72319	39939
0	106435	72319	39929
0	106441	72319	39919
0	106447	72319	39909
0	106453	72319	39899
0	106459	72319	39889
0	106465	72319	39879
0	106471	72319	39869
0	106477	72319	39859
0	106483	72319	39849
0	106489	72319	39839
0	106495	72319	39829
0	106501	72319	39819
0	106507	72319	39809
0	106513	72319	39799
0	106519	72319	39789
0	106525	72319	39779
0	106531	72319	39769
0	106537	72319	39759
0	106543	72319	39749
0	106549	72319	39739
0	106555	72319	39729
0	106561	72319	39719
0	106567	72319	39709
0	106573	72319	39699
0	106579	72319	39689
0	106585	72319	39679
0	106591	72319	39669
0	106597	72319	39659
0	106603	72319	39649
0	106609	72319	39639
0	106615	72319	39629
0	106621	72319	39619
0	106627	72319	39609
0	106633	72319	39599
0	106639	72319	39589
0	106645	72319	39579
0	106651	72319	39569
0	106657	72319	39559
0	106663	72319	39549
0	106669	72319	39539
0	106675	72319	39529
0	106681	72319	39519
0	106687	72319	39509
0	106693	72319	39499
0	106699	72319	39489
0	106705	72319	39479
0	106711	72319	39469
0	106717	72319	39459
0	106723	72319	39449
0	106729	72319	39439
0	106735	72319	39429
0	106741	72319	39419
0	106747	72319	39409
0	106753	72319	39399
0	106759	72319	39389
0	106765	72319	39379
0	106771	72319	39369
0	106777	72319	39359
0	106783	72319	39349
0	106789	72319	39339
0	106795	72319	39329
0	106801	72319	39319
0	106807	72319	39309
0	106813	72319	39299
0	106819	72319	39289
0	106825	72319	39279
0	106831	72319	39269
0	106837	72319	39259
0	106843	72319	39249
0	106849	72319	39239
0	106855	72319	39229
0	106861	72319	39219
0	106867	72319	39209
0	106873	72319	39199
0	106879	72319	39189
0	106885	72319	39179
0	106891	72319	39169
0	106897	72319	39159
0	106903	72319	39149
0	106909	72319	39139
0	106915	72319	39129
0	106921	72319	39119
0	106927	72319	39109
0	106933	72319	39099
0	106939	72319	39089
0	106945	72319	39079
0	106951	72319	39069
0	106957	72319	39059
0	106963	72319	39049
0	106969	72319	39039
0	106975	72319	39029
0	106981	72319	39019
0	106987	72319	39009
0	106993	72319	38999
0	106999	72319	38989
0	107005	72319	38979
0	107011	72319	38969
0	107017	72319	38959
0	107023	72319	38949
0	107029	72319	38939
0	107035	72319	38929
0	107041	72319	38919
0	107047	72319	38909
0	107053	72319	38899
0	107059	72319	38889
0	107065	72319	38879
0	107071	72319	38869
0	107077	72319	38859
0	107083	72319	38849
0	107089	72319	38839
0	107095	72319	38829
0	107101	72319	38819
0	107107	72319	38809
0	107113	72319	38799
0	107119	72319	38789
0	107125	72319	38779
0	107131	72319	38769
0	107137	72319	38759
0	107143	72319	38749
0	107149	72319	38739
0	107155	72319	38729
0	107161	72319	38719
0	107167	72319	38709
0	107173	72319	38699
0	107179	72319	38689
0	107185	72319	38679
0	107191	72319	38669
0	107197	72319	38659
0	107203	72319	38649
0	107209	72319	38639
0	107215	72319	38629
0	107221	72319	38619
0	107227	72319	38609
0	107233	72319	38599
0	107239	72319	38589
0	107245	72319	38579
0	107251	72319	38569
0	107257	72319	38559
0	107263	72319	38549
0	107269	72319	38539
0	107275	72319	38529
0	107281	72319	38519
0	107287	72319	38509
0	107293	72319	38499
0	107299	72319	38489
0	107305	72319	38479
0	107311	72319	38469
0	107317	72319	38459
0	107323	72319	38449
0	107329	72319	38439
0	107335	72319	38429
0	107341	72319	38419
0	107347	72319	38409
0	107353	72319	38399
0	107359	72319	38389
0	107365	72319	38379
0	107371	72319	38369
0	107377	72319	38359
0	107383	72319	38349
0	107389	72319	38339
0	107395	72319	38329
0	107401	72319	38319
0	107407	72319	38309
0	107413	72319	38299
0	107419	72319	38289
0	107425	72319	38279
0	107431	72319	38269
0	107437	72319	38259
0	107443	72319	38249
0	107449	72319	38239
0	107455	72319	38229
0	107461	72319	38219
0	107467	72319	38209
0	107473	72319	38199
0	107479	72319	38189
0	107485	72319	38179
0	107491	72319	38169
0	107497	72319	38159
0	107503	72319	38149
0	107509	72319	38139
0	107515	72319	38129
0	107521	72319	38119
0	107527	72319	38109
0	107533	72319	38099
0	107539	72319	38089
0	107545	72319	38079
0	107551	72319	38069
0	107557	72319	38059
0	107563	72319	38049
0	107569	72319	38039
0	107575	72319	38029
0	107581	72319	38019
0	107587	72319	38009
0	107593	72319	37999
0	107599	72319	37989
0	107605	72319	37979
0	107611	72319	37969
0	107617	72319	37959
0	107623	72319	37949
0	107629	72319	37939
0	107635	72319	37929
0	107641	72319	37919
0	107647	72319	37909
0	107653	72319	37899
0	107659	72319	37889
0	107665	72319	37879
0	107671	72319	37869
0	107677	72319	37859
0	107683	72319	37849
0	107689	72319	37839
0	107695	72319	37829
0	107701	72319	37819
0	107707	72319	37809
0	107713	72319	37799
0	107719	72319	37789
0	107725	72319	37779
0	107731	72319	37769
0	107737	72319	37759
0	107743	72319	37749
0	107749	72319	37739
0	107755	72319	37729
0	107761	72319	37719
0	107767	72319	37709
0	107773	72319	37699
0	107779	72319	37689
0	107785	72319	37679
0	107791	72319	37669
0	107797	72319	37659
0	107803	72319	37649
0	107809	72319	37639
0	107815	72319	37629
0	107821	72319	37619
0	107827	72319	37609
0	107833	72319	37599
0	107839	72319	37589
0	107845	72319	37579
0	107851	72319	37569
0	107857	72319	37559
0	107863	72319	37549
0	107869	72319	37539
0	107875	72319	37529
0	107881	72319	37519
0	107887	72319	37509
0	107893	72319	37499
0	107899	72319	37489
0	107905	72319	37479
0	107911	72319	37469
0	107917	72319	37459
0	107923	72319	37449
0	107929	72319	37439
0	107935	72319	37429
0	107941	72319	37419
0	107947	72319	37409
0	107953	72319	37399
0	107959	72319	37389
0	107965	72319	37379
0	107971	72319	37369
0	107977	72319	37359
0	107983	72319	37349
0	107989	72319	37339
0	107995	72319	37329
0	108001	72319	37319
0	108007	72319	37309
0	108013	72319	37299
0	108019	72319	37289
0	108025	72319	37279
0	108031	72319	37269
0	108037	72319	37259
0	108043	72319	37249
0	108049	72319	37239
0	108055	72319	37229
0	108061	72319	37219
0	108067	72319	37209
0	108073	72319	37199
0	108079	72319	37189
0	108085	72319	37179
0	108091	72319	37169
0	108097	72319	37159
0	108103	72319	37149
0	108109	72319	37139
0	108115	72319	37129
0	108121	72319	37119
0	108127	72319	37109
0	108133	72319	37099
0	108139	72319	37089
0	108145	72319	37079
0	108151	72319	37069
0	108157	72319	37059
0	108163	72319	37049
0	108169	72319	37039
0	108175	72319	37029
0	108181	72319	37019
0	108187	72319	37009
0	108193	72319	36999
0	108199	72319	36989
0	108205	72319	36979
0	108211	72319	36969
0	108217	72319	36959
0	108223	72319	36949
0	108229	72319	36939
0	108235	72319	36929
0	108241	72319	36919
0	108247	72319	36909
0	108253	72319	36899
0	108259	72319	36889
0	108265	72319	36879
0	108271	72319	36869
0	108277	72319	36859
0	108283	72319	36849
0	108289	72319	36839
0	108295	72319	36829
0	108301	72319	36819
0	108307	72319	36809
0	108313	72319	36799
0	108319	72319	36789
0	108325	72319	36779
0	108331	72319	36769
0	108337	72319	36759
0	108343	72319	36749
0	108349	72319	36739
0	108355	72319	36729
0	108361	72319	36719
0	108367	72319	36709
0	108373	72319	36699
0	108379	72319	36689
0	108385	72319	36679
0	108391	72319	36669
0	108397	72319	36659
0	108403	72319	36649
0	108409	72319	36639
0	108415	72319	36629
0	108421	72319	36619
0	108427	72319	36609
0	108433	72319	36599
0	108439	72319	36589
0	108445	72319	36579
0	108451	72319	36569
0	108457	72319	36559
0	108463	72319	36549
0	108469	72319	36539
0	108475	72319	36529
0	108481	72319	36519
0	108487	72319	36509
0	108493	72319	36499
0	108499	72319	36489
0	108505	72319	36479
0	108511	72319	36469
0	108517	72319	36459
0	108523	72319	36449
0	108529	72319	36439
0	108535	72319	36429
0	108541	72319	36419
0	108547	72319	36409
0	108553	72319	36399
0	108559	72319	36389
0	108565	72319	36379
0	108571	72319	36369
0	108577	72319	36359
0	108583	72319	36349
0	108589	72319	36339
0	108595	72319	36329
0	108601	72319	36319
0	108607	72319	36309
0	108613	72319	36299
0	108619	72319	36289
0	108625	72319	36279
0	108631	72319	36269
0	108637	72319	36259
0	108643	72319	36249
0	108649	72319	36239
0	108655	72319	36229
0	108661	72319	36219
0	108667	72319	36209
0	108673	72319	36199
0	108679	72319	36189
0	108685	72319	36179
0	108691	72319	36169
0	108697	72319	36159
0	108703	72319	36149
0	108709	72319	36139
0	108715	72319	36129
0	108721	72319	36119
0	108727	72319	36109
0	108733	72319	36099
0	108739	72319	36089
0	108745	72319	36079
0	108751	72319	36069
0	108757	72319	36059
0	108763	72319	36049
0	108769	72319	36039
0	108775	72319	36029
0	108781	72319	36019
0	108787	72319	36009
0	108793	72319	35999
0	108799	72319	35989
0	108805	72319	35979
0	108811	72319	35969
0	108817	72319	35959
0	108823	72319	35949
0	108829	72319	35939
0	108835	72319	35929
0	108841	72319	35919
0	108847	72319	35909
0	108853	72319	35899
0	108859	72319	35889
0	108865	72319	35879
0	108871	72319	35869
0	108877	72319	35859
0	108883	72319	35849
0	108889	72319	35839
0	108895	72319	35829
0	108901	72319	35819
0	108907	72319	35809
0	108913	72319	35799
0	108919	72319	35789
0	108925	72319	35779
0	108931	72319	35769
0	108937	72319	35759
0	108943	72319	35749
0	108949	72319	35739
0	108955	72319	35729
0	108961	72319	35719
0	108967	72319	35709
0	108973	72319	35699
0	108979	72319	35689
0	108985	72319	35679
0	108991	72319	35669
0	108997	72319	35659
0	109003	72319	35649
0	109009	72319	35639
0	109015	72319	35629
0	109021	72319	35619
0	109027	72319	35609
0	109033	72319	35599
0	109039	72319	35589
0	109045	72319	35579
0	109051	72319	35569
0	109057	72319	35559
0	109063	72319	35549
0	109069	72319	35539
0	109075	72319	35529
0	109081	72319	35519
0	109087	72319	35509
0	109093	72319	35499
0	109099	72319	35489
0	109105	72319	35479
0	109111	72319	35469
0	109117	72319	35459
0	109123	72319	35449
0	109129	72319	35439
0	109135	72319	35429
0	109141	72319	35419
0	109147	72319	35409
0	109153	72319	35399
0	109159	72319	35389
0	109165	72319	35379
0	109171	72319	35369
0	109177	72319	35359
0	109183	72319	35349
0	109189	72319	35339
0	109195	72319	35329
0	109201	72319	35319
0	109207	72319	35309
0	109213	72319	35299
0	109219	72319	35289
0	109225	72319	35279
0	109231	72319	35269
0	109237	72319	35259
0	109243	72319	35249
0	109249	72319	35239
0	109255	72319	35229
0	109261	72319	35219
0	109267	72319	35209
0	109273	72319	35199
0	109279	72319	35189
0	109285	72319	35179
0	109291	72319	35169
0	109297	72319	35159
0	109303	72319	35149
0	109309	72319	35139
0	109315	72319	35129
0	109321	72319	35119
0	109327	72319	35109
0	109333	72319	35099
0	109339	72319	35089
0	109345	72319	35079
0	109351	72319	35069
0	109357	72319	35059
0	109363	72319	35049
0	109369	72319	35039
0	109375	72319	35029
0	109381	72319	35019
0	109387	72319	35009
0	109393	72319	34999
0	109399	72319	34989
0	109405	72319	34979
0	109411	72319	34969
0	109417	72319	34959
0	109423	72319	34949
0	109429	72319	34939
0	109435	72319	34929
0	109441	72319	34919
0	109447	72319	34909
0	109453	72319	34899
0	109459	72319	34889
0	109465	72319	34879
0	109471	72319	34869
0	109477	72319	34859
0	109483	72319	34849
0	109489	72319	34839
0	109495	72319	34829
0	109501	72319	34819
0	109507	72319	34809
0	109513	72319	34799
0	109519	72319	34789
0	109525	72319	34779
0	109531	72319	34769
0	109537	72319	34759
0	109543	72319	34749
0	109549	72319	34739
0	109555	72319	34729
0	109561	72319	34719
0	109567	72319	34709
0	109573	72319	34699
0	109579	72319	34689
0	109585	72319	34679
0	109591	72319	34669
0	109597	72319	34659
0	109603	72319	34649
0	109609	72319	34639
0	109615	72319	34629
0	109621	72319	34619
0	109627	72319	34609
0	109633	72319	34599
0	109639	72319	34589
0	109645	72319	34579
0	109651	72319	34569
0	109657	72319	34559
0	109663	72319	34549
0	109669	72319	34539
0	109675	72319	34529
0	109681	72319	34519
0	109687	72319	34509
0	109693	72319	34499
0	109699	72319	34489
0	109705	72319	34479
0	109711	72319	34469
0	109717	72319	34459
0	109723	72319	34449
0	109729	72319	34439
0	109735	72319	34429
0	109741	72319	34419
0	109747	72319	34409
0	109753	72319	34399
0	109759	72319	34389
0	109765	72319	34379
0	109771	72319	34369
0	109777	72319	34359
0	109783	72319	34349
[...]
0	128773	72319	2699
0	128779	72319	2689
0	128785	72319	2679
0	128791	72319	2669
0	128797	72319	2659
0	128803	72319	2649
0	128809	72319	2639
0	128815	72319	2629
0	128821	72319	2619
0	128827	72319	2609
0	128833	72319	2599
0	128839	72319	2589
0	128845	72319	2579
0	128851	72319	2569
0	128857	72319	2559
0	128863	72319	2549
0	128869	72319	2539
0	128875	72319	2529
0	128881	72319	2519
0	128887	72319	2509
0	128893	72319	2499
0	128899	72319	2489
0	128905	72319	2479
0	128911	72319	2469
0	128917	72319	2459
0	128923	72319	2449
0	128929	72319	2439
0	128935	72319	2429
0	128941	72319	2419
0	128947	72319	2409
0	128953	72319	2399
0	128959	72319	2389
0	128965	72319	2379
0	128971	72319	2369
0	128977	72319	2359
0	128983	72319	2349
0	128989	72319	2339
0	128995	72319	2329
0	129001	72319	2319
0	129007	72319	2309
0	129013	72319	2299
0	129019	72319	2289
0	129025	72319	2279
0	129031	72319	2269
0	129037	72319	2259
0	129043	72319	2249
0	129049	72319	2239
0	129055	72319	2229
0	129061	72319	2219
0	129067	72319	2209
0	129073	72319	2199
0	129079	72319	2189
0	129085	72319	2179
0	129091	72319	2169
0	129097	72319	2159
0	129103	72319	2149
0	129109	72319	2139
0	129115	72319	2129
0	129121	72319	2119
0	129127	72319	2109
0	129133	72319	2099
0	129139	72319	2089
0	129145	72319	2079
0	129151	72319	2069
0	129157	72319	2059
0	129163	72319	2049
0	129169	72319	2039
0	129175	72319	2029
0	129181	72319	2019
0	129187	72319	2009
0	129193	72319	1999
0	129199	72319	1989
0	129205	72319	1979
0	129211	72319	1969
0	129217	72319	1959
0	129223	72319	1949
0	129229	72319	1939
0	129235	72319	1929
0	129241	72319	1919
0	129247	72319	1909
0	129253	72319	1899
0	129259	72319	1889
0	129265	72319	1879
0	129271	72319	1869
0	129277	72319	1859
0	129283	72319	1849
0	129289	72319	1839
0	129295	72319	1829
0	129301	72319	1819
0	129307	72319	1809
0	129313	72319	1799
0	129319	72319	1789
0	129325	72319	1779
0	129331	72319	1769
0	129337	72319	1759
0	129343	72319	1749
0	129349	72319	1739
0	129355	72319	1729
0	129361	72319	1719
0	129367	72319	1709
0	129373	72319	1699
0	129379	72319	1689
0	129385	72319	1679
0	129391	72319	1669
0	129397	72319	1659
0	129403	72319	1649
0	129409	72319	1639
0	129415	72319	1629
0	129421	72319	1619
0	129427	72319	1609
0	129433	72319	1599
0	129439	72319	1589
0	129445	72319	1579
0	129451	72319	1569
0	129457	72319	1559
0	129463	72319	1549
0	129469	72319	1539
0	129475	72319	1529
0	129481	72319	1519
0	129487	72319	1509
0	129493	72319	1499
0	129499	72319	1489
0	129505	72319	1479
0	129511	72319	1469
0	129517	72319	1459
0	129523	72319	1449
0	129529	72319	1439
0	129535	72319	1429
0	129541	72319	1419
0	129547	72319	1409
0	129553	72319	1399
0	129559	72319	1389
0	129565	72319	1379
0	129571	72319	1369
0	129577	72319	1359
0	129583	72319	1349
0	129589	72319	1339
0	129595	72319	1329
0	129601	72319	1319
0	129607	72319	1309
0	129613	72319	1299
0	129619	72319	1289
0	129625	72319	1279
0	129631	72319	1269
0	129637	72319	1259
0	129643	72319	1249
0	129649	72319	1239
0	129655	72319	1229
0	129661	72319	1219
0	129667	72319	1209
0	129673	72319	1199
0	129679	72319	1189
0	129685	72319	1179
0	129691	72319	1169
0	129697	72319	1159
0	129703	72319	1149
0	129709	72319	1139
0	129715	72319	1129
0	129721	72319	1119
0	129727	72319	1109
0	129733	72319	1099
0	129739	72319	1089
0	129745	72319	1079
0	129751	72319	1069
0	129757	72319	1059
0	129763	72319	1049
0	129769	72319	1039
0	129775	72319	1029
0	129781	72319	1019
0	129787	72319	1009
0	129793	72319	999
0	129799	72319	989
0	129805	72319	979
0	129811	72319	969
0	129817	72319	959
0	129823	72319	949
0	129829	72319	939
0	129835	72319	929
0	129841	72319	919
0	129847	72319	909
0	129853	72319	899
0	129859	72319	889
0	129865	72319	879
0	129871	72319	869
0	129877	72319	859
0	129883	72319	849
0	129889	72319	839
0	129895	72319	829
0	129901	72319	819
0	129907	72319	809
0	129913	72319	799
0	129919	72319	789
0	129925	72319	779
0	129931	72319	769
0	129937	72319	759
0	129943	72319	749
0	129949	72319	739
0	129955	72319	729
0	129961	72319	719
0	129967	72319	709
0	129973	72319	699
0	129979	72319	689
0	129985	72319	679
0	129991	72319	669
0	129997	72319	659
0	130003	72319	649
0	130009	72319	639
0	130015	72319	629
0	130021	72319	619
0	130027	72319	609
0	130033	72319	599
0	130039	72319	589
0	130045	72319	579
0	130051	72319	569
0	130057	72319	559
0	130063	72319	549
0	130069	72319	539
0	130075	72319	529
0	130081	72319	519
0	130087	72319	509
0	130093	72319	499
0	130099	72319	489
0	130105	72319	479
0	130131	72328	478
0	130159	72338	478
0	130187	72348	478
0	130215	72358	478
0	130245	72368	478
0	130274	72378	478
0	130305	72388	478
0	130337	72398	478
0	130367	72408	478
0	130397	72418	478
0	130427	72428	478
0	130461	72438	478
0	130491	72448	478
0	130521	72458	478
0	130551	72468	478
0	130582	72478	478
0	130612	72488	478
0	130642	72498	478
0	130672	72508	478
0	130702	72518	478
0	130732	72528	478
0	130762	72538	478
0	130792	72548	478
0	130822	72558	478
0	130854	72568	478
0	130884	72578	478
0	130914	72588	478
0	130944	72598	478
0	130974	72608	478
0	131004	72618	478
0	131034	72628	478
0	131064	72638	478
0	131096	72648	478
0	131127	72658	478
0	131158	72668	478
0	131191	72678	478
0	131222	72688	478
0	131254	72698	478
0	131286	72708	478
0	131320	72718	478
0	131353	72728	478
0	131386	72738	478
0	131419	72748	478
0	131454	72758	478
0	131492	72768	478
0	131528	72778	478
0	131560	72788	478
0	131592	72798	478
0	131626	72808	478
0	131658	72818	478
0	131692	72828	478
0	131724	72838	478
0	131756	72848	478
0	131792	72858	478
0	131825	72868	478
0	131862	72878	478
0	131899	72888	478
0	131934	72898	478
0	131969	72908	478
0	132006	72918	478
0	132041	72928	478
0	132077	72938	478
0	132115	72948	478
0	132154	72958	478
0	132191	72968	478
0	132228	72978	478
0	132265	72988	478
0	132302	72998	478
0	132339	73008	478
0	132376	73018	478
0	132413	73028	478
0	132450	73038	478
0	132487	73048	478
0	132524	73058	478
0	132563	73068	478
0	132603	73078	478
0	132641	73088	478
0	132679	73098	478
0	132717	73108	478
0	132757	73118	478
0	132797	73128	478
0	132836	73138	478
0	132875	73148	478
0	132914	73158	478
0	132955	73168	478
0	132994	73178	478
0	133036	73188	478
0	133077	73198	478
0	133118	73208	478
0	133159	73218	478
0	133202	73228	478
0	133244	73238	478
0	133288	73248	478
0	133332	73258	478
0	133375	73268	478
0	133418	73278	478
0	133463	73288	478
0	133506	73298	478
0	133549	73308	478
0	133592	73318	478
0	133637	73328	478
0	133682	73338	478
0	133726	73348	478
0	133770	73358	478
0	133818	73368	478
0	133866	73378	478
0	133915	73388	478
0	133965	73398	478
0	134013	73408	478
0	134061	73418	478
0	134109	73428	478
0	134157	73438	478
0	134205	73448	478
0	134253	73458	478
0	134301	73468	478
0	134349	73478	478
0	134399	73488	478
0	134447	73498	478
0	134495	73508	478
0	134547	73518	478
0	134596	73528	478
0	134647	73538	478
0	134696	73548	478
0	134745	73558	478
0	134794	73568	478
0	134843	73578	478
0	134892	73588	478
0	134941	73598	478
0	134990	73608	478
0	135039	73618	478
0	135088	73628	478
0	135139	73638	478
0	135188	73648	478
0	135237	73658	478
0	135286	73668	478
0	135335	73678	478
0	135384	73688	478
0	135433	73698	478
0	135482	73708	478
0	135531	73718	478
0	135582	73728	478
0	135637	73738	478
0	135691	73748	478
0	135745	73758	478
0	135802	73768	478
0	135855	73778	478
0	135910	73788	478
0	135963	73798	478
0	136016	73808	478
0	136069	73818	478
0	136124	73828	478
0	136178	73838	478
0	136232	73848	478
0	136286	73858	478
0	136340	73868	478
0	136394	73878	478
0	136450	73888	478
0	136506	73898	478
0	136564	73908	478
0	136620	73918	478
0	136676	73928	478
0	136732	73938	478
0	136788	73948	478
0	136844	73958	478
0	136900	73968	478
0	136956	73978	478
0	137012	73988	478
0	137068	73998	478
0	137126	74008	478
0	137183	74018	478
0	137240	74028	478
0	137297	74038	478
0	137354	74048	478
0	137411	74058	478
0	137468	74068	478
0	137525	74078	478
0	137582	74088	478
0	137639	74098	478
0	137696	74108	478
0	137759	74118	478
0	137818	74128	478
0	137882	74138	478
0	137943	74148	478
0	138004	74158	478
0	138065	74168	478
0	138126	74178	478
0	138187	74188	478
0	138250	74198	478
0	138313	74208	478
0	138375	74218	478
0	138437	74228	478
0	138499	74238	478
0	138561	74248	478
0	138623	74258	478
0	138685	74268	478
0	138749	74278	478
0	138811	74288	478
0	138875	74298	478
0	138938	74308	478
0	139003	74318	478
0	139066	74328	478
0	139129	74338	478
0	139194	74348	478
0	139259	74358	478
0	139325	74368	478
0	139389	74378	478
0	139453	74388	478
0	139519	74398	478
0	139584	74408	478
0	139651	74418	478
0	139720	74428	478
0	139787	74438	478
0	139854	74448	478
0	139925	74458	478
0	139994	74468	478
0	140061	74478	478
0	140128	74488	478
0	140195	74498	478
0	140262	74508	478
0	140329	74518	478
0	140396	74528	478
0	140465	74538	478
0	140532	74548	478
0	140599	74558	478
0	140666	74568	478
0	140735	74578	478
0	140806	74588	478
0	140874	74598	478
0	140942	74608	478
0	141010	74618	478
0	141082	74628	478
0	141152	74638	478
0	141222	74648	478
0	141292	74658	478
0	141364	74668	478
0	141434	74678	478
0	141504	74688	478
0	141574	74698	478
0	141646	74708	478
0	141718	74718	478
0	141788	74728	478
0	141858	74738	478
0	141928	74748	478
0	141998	74758	478
0	142068	74768	478
0	142138	74778	478
0	142208	74788	478
0	142280	74798	478
0	142350	74808	478
0	142422	74818	478
0	142492	74828	478
0	142564	74838	478
0	142635	74848	478
0	142708	74858	478
0	142780	74868	478
0	142852	74878	478
0	142924	74888	478
0	142996	74898	478
0	143068	74908	478
0	143142	74918	478
0	143214	74928	478
0	143286	74938	478
0	143358	74948	478
0	143430	74958	478
0	143502	74968	478
0	143578	74978	478
0	143651	74988	478
0	143725	74998	478
0	143801	75008	478
0	143878	75018	478
0	143953	75028	478
0	144028	75038	478
0	144099	75048	478
0	144172	75058	478
0	144243	75068	478
0	144314	75078	478
0	144387	75088	478
0	144461	75098	478
0	144533	75108	478
0	144605	75118	478
0	144679	75128	478
0	144752	75138	478
0	144825	75148	478
0	144900	75158	478
0	144974	75168	478
0	145049	75178	478
0	145123	75188	478
0	145198	75198	478
0	145272	75208	478
0	145345	75218	478
0	145418	75228	478
0	145491	75238	478
0	145564	75248	478
0	145637	75258	478
0	145710	75268	478
0	145783	75278	478
0	145856	75288	478
0	145929	75298	478
0	146004	75308	478
0	146078	75318	478
0	146152	75328	478
0	146226	75338	478
0	146300	75348	478
0	146374	75358	478
0	146448	75368	478
0	146522	75378	478
0	146598	75388	478
0	146672	75398	478
0	146746	75408	478
0	146820	75418	478
0	146895	75428	478
0	146968	75438	478
0	147041	75448	478
0	147114	75458	478
0	147189	75468	478
0	147266	75478	478
0	147341	75488	478
0	147418	75498	478
0	150408	75988	958
0	150432	75988	948
0	150438	75988	938
0	150444	75988	928
0	150450	75988	918
0	150456	75988	908
0	150462	75988	898
0	150468	75988	888
0	150474	75988	878
0	150480	75988	868
0	150486	75988	858
0	150492	75988	848
0	150498	75988	838
0	150504	75988	828
0	150510	75988	818
0	150516	75988	808
0	150522	75988	798
0	150528	75988	788
0	150534	75988	778
0	150540	75988	768
0	150546	75988	758
0	150552	75988	748
0	150558	75988	738
0	150564	75988	728
0	150570	75988	718
0	150576	75988	708
0	150582	75988	698
0	150588	75988	688
0	150594	75988	678
0	150600	75988	668
0	150606	75988	658
0	150612	75988	648
0	150618	75988	638
0	150624	75988	628
0	150630	75988	618
0	150636	75988	608
0	150642	75988	598
0	150648	75988	588
0	150654	75988	578
0	150660	75988	568
0	150666	75988	558
0	150672	75988	548
0	150678	75988	538
0	150684	75988	528
0	150690	75988	518
0	150696	75988	508
0	150702	75988	498
0	150708	75988	488
0	150714	75988	478
0	150781	75998	478
0	150866	76008	478
0	150951	76018	478
0	151033	76028	478
0	151113	76038	478
0	151193	76048	478
0	151273	76058	478
0	151353	76068	478
0	151434	76078	478
0	151514	76088	478
0	151594	76098	478
0	151674	76108	478
0	151754	76118	478
0	151834	76128	478
0	151917	76138	478
0	151999	76148	478
0	152080	76158	478
0	152164	76168	478
0	152247	76178	478
0	152330	76188	478
0	152411	76198	478
0	152494	76208	478
0	152575	76218	478
0	152656	76228	478
0	152741	76238	478
0	152825	76248	478
0	152907	76258	478
0	152989	76268	478
0	153074	76278	478
0	153155	76288	478
0	153236	76298	478
0	153318	76308	478
0	153399	76318	478
0	153478	76328	478
0	153557	76338	478
0	153636	76348	478
0	153715	76358	478
0	153795	76368	478
0	153874	76378	478
0	153953	76388	478
0	154032	76398	478
0	154112	76408	478
0	154190	76418	478
0	154271	76428	478
0	154350	76438	478
0	154430	76448	478
0	154506	76458	478
0	154582	76468	478
0	154661	76478	478
0	154739	76488	478
0	157312	76968	948
0	157334	76968	938
0	157340	76968	928
0	157346	76968	918
0	157352	76968	908
0	157358	76968	898
0	157364	76968	888
0	157370	76968	878
0	157376	76968	868
0	157382	76968	858
0	157388	76968	848
0	157394	76968	838
0	157400	76968	828
0	157406	76968	818
0	157412	76968	808
0	157418	76968	798
0	157424	76968	788
0	157430	76968	778
0	157436	76968	768
0	157442	76968	758
0	157448	76968	748
0	157454	76968	738
0	157460	76968	728
0	157466	76968	718
0	157472	76968	708
0	157478	76968	698
0	157484	76968	688
0	157490	76968	678
0	157496	76968	668
0	157502	76968	658
0	157508	76968	648
0	157514	76968	638
0	157520	76968	628
0	157526	76968	618
0	157532	76968	608
0	157538	76968	598
0	157544	76968	588
0	157550	76968	578
0	157556	76968	568
0	157562	76968	558
0	157568	76968	548
0	157574	76968	538
0	157580	76968	528
0	157586	76968	518
0	157592	76968	508
0	157598	76968	498
0	157604	76968	488
0	157610	76968	478
0	157666	76978	478
0	157738	76988	478
0	157809	76998	478
0	157880	77008	478
0	157951	77018	478
0	158023	77028	478
0	158093	77038	478
0	158162	77048	478
0	158231	77058	478
0	158301	77068	478
0	158371	77078	478
0	158443	77088	478
0	158512	77098	478
0	158580	77108	478
0	158647	77118	478
0	158714	77128	478
0	158779	77138	478
0	158844	77148	478
0	158912	77158	478
0	163964	78238	1548
0	163982	78238	1538
0	163988	78238	1528
0	163994	78238	1518
0	164000	78238	1508
0	164006	78238	1498
0	164012	78238	1488
0	164018	78238	1478
0	164024	78238	1468
0	164030	78238	1458
0	164036	78238	1448
0	164042	78238	1438
0	164048	78238	1428
0	164054	78238	1418
0	164060	78238	1408
0	164066	78238	1398
0	164072	78238	1388
0	164078	78238	1378
0	164084	78238	1368
0	164090	78238	1358
0	164096	78238	1348
0	164102	78238	1338
0	164108	78238	1328
0	164114	78238	1318
0	164120	78238	1308
0	164126	78238	1298
0	164132	78238	1288
0	164138	78238	1278
0	164144	78238	1268
0	164150	78238	1258
0	164156	78238	1248
0	164162	78238	1238
0	164168	78238	1228
0	164174	78238	1218
0	164180	78238	1208
0	164186	78238	1198
0	164192	78238	1188
0	164198	78238	1178
0	164204	78238	1168
0	164210	78238	1158
0	164216	78238	1148
0	164222	78238	1138
0	164228	78238	1128
0	164234	78238	1118
0	164240	78238	1108
0	164246	78238	1098
0	164252	78238	1088
0	164258	78238	1078
0	164264	78238	1068
0	164270	78238	1058
0	164276	78238	1048
0	164282	78238	1038
0	164288	78238	1028
0	164294	78238	1018
0	164300	78238	1008
0	164306	78238	998
0	164312	78238	988
0	164318	78238	978
0	164324	78238	968
0	164330	78238	958
0	164336	78238	948
0	164342	78238	938
0	164348	78238	928
0	164354	78238	918
0	164360	78238	908
0	164366	78238	898
0	164372	78238	888
0	164378	78238	878
0	164384	78238	868
0	164390	78238	858
0	164396	78238	848
0	164402	78238	838
0	164408	78238	828
0	164414	78238	818
0	164420	78238	808
0	164426	78238	798
0	164432	78238	788
0	164438	78238	778
0	164444	78238	768
0	164450	78238	758
0	164456	78238	748
0	164462	78238	738
0	164468	78238	728
0	164474	78238	718
0	164480	78238	708
0	164486	78238	698
0	164492	78238	688
0	164498	78238	678
0	164504	78238	668
0	164510	78238	658
0	164516	78238	648
0	164522	78238	638
0	164528	78238	628
0	164534	78238	618
0	164540	78238	608
0	164546	78238	598
0	164552	78238	588
0	164558	78238	578
0	164564	78238	568
0	164570	78238	558
0	164576	78238	548
0	164582	78238	538
0	164588	78238	528
0	164594	78238	518
0	164600	78238	508
0	164606	78238	498
0	164612	78238	488
0	164618	78238	478
0	164672	78248	478
0	164738	78258	478
0	164804	78268	478
0	164872	78278	478
0	164938	78288	478
0	165004	78298	478
0	165072	78308	478
0	165142	78318	478
0	165208	78328	478
0	165274	78338	478
0	165340	78348	478
0	165406	78358	478
0	165472	78368	478
0	165539	78378	478
0	165605	78388	478
0	165672	78398	478
0	165738	78408	478
0	165804	78418	478
0	165872	78428	478
0	165940	78438	478
0	166007	78448	478
0	166075	78458	478
0	166138	78468	478
0	166201	78478	478
0	166264	78488	478
0	166327	78498	478
0	166390	78508	478
0	166453	78518	478
0	166518	78528	478
0	166584	78538	478
0	166652	78548	478
0	166717	78558	478
0	166783	78568	478
0	166847	78578	478
0	166912	78588	478
0	166979	78598	478
0	167043	78608	478
0	167109	78618	478
0	167175	78628	478
0	167239	78638	478
0	167305	78648	478
0	167369	78658	478
0	167433	78668	478
0	167497	78678	478
0	167561	78688	478
0	167627	78698	478
0	167692	78708	478
0	167758	78718	478
0	167822	78728	478
0	167888	78738	478
0	167952	78748	478
0	168017	78758	478
0	168082	78768	478
0	168146	78778	478
0	168210	78788	478
0	168274	78798	478
0	168338	78808	478
0	168406	78818	478
0	168470	78828	478
0	168532	78838	478
0	168596	78848	478
0	168658	78858	478
0	168720	78868	478
0	168782	78878	478
0	168846	78888	478
0	168909	78898	478
0	168970	78908	478
0	169032	78918	478
0	169095	78928	478
0	172622	79838	1378
0	172639	79838	1368
0	172645	79838	1358
0	172651	79838	1348
0	172657	79838	1338
0	172663	79838	1328
0	172669	79838	1318
0	172675	79838	1308
0	172681	79838	1298
0	172687	79838	1288
0	172693	79838	1278
0	172699	79838	1268
0	172705	79838	1258
0	172711	79838	1248
0	172717	79838	1238
0	172723	79838	1228
0	172729	79838	1218
0	172735	79838	1208
0	172741	79838	1198
0	172747	79838	1188
0	172753	79838	1178
0	172759	79838	1168
0	172765	79838	1158
0	172771	79838	1148
0	172777	79838	1138
0	172783	79838	1128
0	172789	79838	1118
0	172795	79838	1108
0	172801	79838	1098
0	172807	79838	1088
0	172813	79838	1078
0	172819	79838	1068
0	172825	79838	1058
0	172831	79838	1048
0	172837	79838	1038
0	172843	79838	1028
0	172849	79838	1018
0	172855	79838	1008
0	172861	79838	998
0	172867	79838	988
0	172873	79838	978
0	172879	79838	968
0	172885	79838	958
0	172891	79838	948
0	172897	79838	938
0	172903	79838	928
0	172909	79838	918
0	172915	79838	908
0	172921	79838	898
0	172927	79838	888
0	172933	79838	878
0	172939	79838	868
0	172945	79838	858
0	172951	79838	848
0	172957	79838	838
0	172963	79838	828
0	172969	79838	818
0	172975	79838	808
0	172981	79838	798
0	172987	79838	788
0	172993	79838	778
0	172999	79838	768
0	173005	79838	758
0	173011	79838	748
0	173017	79838	738
0	173023	79838	728
0	173029	79838	718
0	173035	79838	708
0	173041	79838	698
0	173047	79838	688
0	173053	79838	678
0	173059	79838	668
0	173065	79838	658
0	173071	79838	648
0	173077	79838	638
0	173083	79838	628
0	173089	79838	618
0	173095	79838	608
0	173101	79838	598
0	173107	79838	588
0	173113	79838	578
0	173119	79838	568
0	173125	79838	558
0	173131	79838	548
0	173137	79838	538
0	173143	79838	528
0	173149	79838	518
0	173155	79838	508
0	173161	79838	498
0	173167	79838	488
0	173173	79838	478
0	173219	79848	478
0	173276	79858	478
0	173333	79868	478
0	173390	79878	478
0	173449	79888	478
0	173506	79898	478
0	173565	79908	478
0	173623	79918	478
0	173680	79928	478
0	173738	79938	478
0	173795	79948	478
0	173853	79958	478
0	173908	79968	478
0	173963	79978	478
0	174018	79988	478
0	174073	79998	478
0	174098	80008	478
0	174123	80018	478
0	174148	80028	478
0	174173	80038	478
0	174198	80048	478
0	174223	80058	478
0	174248	80068	478
0	174273	80078	478
0	174298	80088	478
0	174323	80098	478
0	174348	80108	478
0	174373	80118	478
0	174397	80128	478
0	174421	80138	478
0	174445	80148	478
0	174469	80158	478
0	174493	80168	478
0	174517	80178	478
0	174541	80188	478
0	174565	80198	478
0	174589	80208	478
0	174613	80218	478
0	174637	80228	478
0	174663	80238	478
0	174687	80248	478
0	174711	80258	478
0	174735	80268	478
0	174759	80278	478
0	174783	80288	478
0	174810	80298	478
0	174834	80308	478
0	174859	80318	478
0	174885	80328	478
0	174909	80338	478
0	174934	80348	478
0	174959	80358	478
0	174983	80368	478
0	175007	80378	478
0	175032	80388	478
0	175057	80398	478
0	175081	80408	478
0	175105	80418	478
0	175131	80428	478
0	175156	80438	478
0	175180	80448	478
0	175203	80458	478
0	175226	80468	478

