version 2
run General-0-20250129-17:32:04-18691
attr configname General
attr datetime 20250129-17:32:04
attr experiment General
attr inifile shaw_exist.ini
attr iterationvars ""
attr iterationvarsf ""
attr measurement ""
attr network src.dtnsim
attr processid 18691
attr repetition 0
attr replication #0
attr resultdir results
attr runnumber 0
attr seedset 0
param dtnsim.central.contactsFile "\"contactPlan/Contacts.txt\""
param dtnsim.central.contactsFile_A "\"contactPlan/Contacts_A.txt\""
param dtnsim.central.contactsFile_B "\"contactPlan/Contacts_B.txt\""
param dtnsim.central.contactIdsToDelete "\"6 9 13 14 15 17 18 23 24 26 29 43 53 64 65 67 69 75 76 77 79 85 87 88 90 93 95 97 100 105 108 117 127 128 136 137 144 145 148 149 151 153 154 157 158 162 170 177 191 194 201 203 206 222 223 230 234 235 238 239 243 244 245 251 254 255 257 258 259 265 269 273 276 277 282 283 287 293 294 297 301 305 308 315 316 318 321 339 340 347 349 353 354 356 359 365 380 384 391 393\""
param dtnsim.central.contactIdsToDelete_from_celestialA "\"13 15 17 23 29 64 67 77 85 95 97 100 105 117 128 137 148 149 154 191 206 230 235 238 244 255 257 258 265 269 273 276 277 283 294 297 308 316 318 339 347 349 356 359 380 391 393\""
param dtnsim.central.contactIdsToDelete_from_celestialB "\"6 9 14 18 24 26 43 53 65 69 75 76 79 87 88 90 93 108 127 136 144 145 151 153 157 158 162 170 177 194 201 203 222 223 234 239 243 245 251 254 259 282 287 293 301 305 315 321 340 353 354 365 384\""
param dtnsim.central.celestialA_nodes "\"1 2 3\""
param dtnsim.central.celestialB_nodes "\"4 5 6\""
param dtnsim.central.locallyfaultsAware true
param dtnsim.central.mode_two_celestial true
param dtnsim.central.faultsAware false
param dtnsim.nodesNumber 6
param dtnsim.node[1].icon "\"receiverdish\""
param dtnsim.node[2..5].icon "\"satellite\""
param dtnsim.node[6].icon "\"receiverdish\""
param dtnsim.node[*].dtn.routing "\"cgrModel350\""
param dtnsim.node[*].dtn.routingType "\"routeListType:allPaths-firstEnding,volumeAware:allContacts,extensionBlock:on,contactPlan:global\""
param dtnsim.node[1].app.enable true
param dtnsim.node[1].app.custodyTransfer true
param dtnsim.node[1].app.bundlesNumber "\"2000\""
param dtnsim.node[1].app.start "\"0\""
param dtnsim.node[1].app.destinationEid "\"6\""
param dtnsim.node[1].app.size "\"1500\""
param dtnsim.node[1].app.interval 1
param dtnsim.node[*].app.custodyTimeout 100000000000000
param dtnsim.node[1].app.ttl 50000

vector 0 dtnsim.node[6].app appBundleReceivedDelayvec:vector ETV
attr interpolationmode none
attr source appBundleReceivedDelay
attr title "appBundleReceivedDelayvec, vector"
0	79286	1458.07	1458.07
0	79287	1458.07	1457.07
0	79288	1458.07	1456.07
0	79289	1458.07	1455.07
0	79290	1458.07	1454.07
0	79291	1458.07	1453.07
0	79292	1458.07	1452.07
0	79293	1458.07	1451.07
0	79294	1458.07	1450.07
0	79295	1458.07	1449.07
0	79296	1458.07	1448.07
0	79297	1458.07	1447.07
0	79298	1458.07	1446.07
0	79299	1458.07	1445.07
0	79300	1458.07	1444.07
0	79301	1458.07	1443.07
0	79302	1458.07	1442.07
0	79303	1458.07	1441.07
0	79304	1458.07	1440.07
0	79305	1458.07	1439.07
0	79306	1458.07	1438.07
0	79307	1458.07	1437.07
0	79308	1458.07	1436.07
0	79309	1458.07	1435.07
0	79310	1458.07	1434.07
0	79311	1458.07	1433.07
0	79312	1458.07	1432.07
0	79313	1458.07	1431.07
0	79314	1458.07	1430.07
0	79315	1458.07	1429.07
0	79316	1458.07	1428.07
0	79317	1458.07	1427.07
0	79318	1458.07	1426.07
0	79319	1458.07	1425.07
0	79320	1458.07	1424.07
0	79321	1458.07	1423.07
0	79322	1458.07	1422.07
0	79323	1458.07	1421.07
0	79324	1458.07	1420.07
0	79325	1458.07	1419.07
0	79326	1458.07	1418.07
0	79327	1458.07	1417.07
0	79328	1458.07	1416.07
0	79329	1458.07	1415.07
0	79330	1458.07	1414.07
0	79331	1458.07	1413.07
0	79332	1458.07	1412.07
0	79333	1458.07	1411.07
0	79334	1458.07	1410.07
0	79335	1458.07	1409.07
0	79336	1458.07	1408.07
0	79337	1458.07	1407.07
0	79338	1458.07	1406.07
0	79339	1458.07	1405.07
0	79340	1458.07	1404.07
0	79341	1458.07	1403.07
0	79342	1458.07	1402.07
0	79343	1458.07	1401.07
0	79344	1458.07	1400.07
0	79345	1458.07	1399.07
0	79346	1458.07	1398.07
0	79347	1458.07	1397.07
0	79348	1458.07	1396.07
0	79349	1458.07	1395.07
0	79350	1458.07	1394.07
0	79351	1458.07	1393.07
0	79352	1458.07	1392.07
0	79353	1458.07	1391.07
0	79354	1458.07	1390.07
0	79355	1458.07	1389.07
0	79356	1458.07	1388.07
0	79357	1458.07	1387.07
0	79358	1458.07	1386.07
0	79359	1458.07	1385.07
0	79360	1458.07	1384.07
0	79361	1458.07	1383.07
0	79362	1458.07	1382.07
0	79363	1458.07	1381.07
0	79364	1458.07	1380.07
0	79365	1458.07	1379.07
0	79366	1458.07	1378.07
0	79367	1458.07	1377.07
0	79368	1458.07	1376.07
0	79369	1458.07	1375.07
0	79370	1458.07	1374.07
0	79371	1458.07	1373.07
0	79372	1458.07	1372.07
0	79373	1458.07	1371.07
0	79374	1458.07	1370.07
0	79375	1458.07	1369.07
0	79376	1458.07	1368.07
0	79377	1458.07	1367.07
0	79378	1458.07	1366.07
0	79379	1458.07	1365.07
0	79380	1458.07	1364.07
0	79381	1458.07	1363.07
0	79382	1458.07	1362.07
0	79383	1458.07	1361.07
0	79384	1458.07	1360.07
0	79385	1458.07	1359.07
0	79386	1458.07	1358.07
0	79387	1458.07	1357.07
0	79388	1458.07	1356.07
0	79389	1458.07	1355.07
0	79390	1458.07	1354.07
0	79391	1458.07	1353.07
0	79392	1458.07	1352.07
0	79393	1458.07	1351.07
0	79394	1458.07	1350.07
0	79395	1458.07	1349.07
0	79396	1458.07	1348.07
0	79397	1458.07	1347.07
0	79398	1458.07	1346.07
0	79399	1458.07	1345.07
0	79400	1458.07	1344.07
0	79401	1458.07	1343.07
0	79402	1458.07	1342.07
0	79403	1458.07	1341.07
0	79404	1458.07	1340.07
0	79405	1458.07	1339.07
0	79406	1458.07	1338.07
0	79407	1458.07	1337.07
0	79408	1458.07	1336.07
0	79409	1458.07	1335.07
0	79410	1458.07	1334.07
0	79411	1458.07	1333.07
0	79412	1458.07	1332.07
0	79413	1458.07	1331.07
0	79414	1458.07	1330.07
0	79415	1458.07	1329.07
0	79416	1458.07	1328.07
0	79417	1458.07	1327.07
0	79418	1458.07	1326.07
0	79419	1458.07	1325.07
0	79420	1458.07	1324.07
0	79421	1458.07	1323.07
0	79422	1458.07	1322.07
0	79423	1458.07	1321.07
0	79424	1458.07	1320.07
0	79425	1458.07	1319.07
0	79426	1458.07	1318.07
0	79427	1458.07	1317.07
0	79428	1458.07	1316.07
0	79429	1458.07	1315.07
0	79430	1458.07	1314.07
0	79431	1458.07	1313.07
0	79432	1458.07	1312.07
0	79433	1458.07	1311.07
0	79434	1458.07	1310.07
0	79435	1458.07	1309.07
0	79436	1458.07	1308.07
0	79437	1458.07	1307.07
0	79438	1458.07	1306.07
0	79439	1458.07	1305.07
0	79440	1458.07	1304.07
0	79441	1458.07	1303.07
0	79442	1458.07	1302.07
0	79443	1458.07	1301.07
0	79444	1458.07	1300.07
0	81763	1459.07	1300.07
0	81870	1460.07	1300.07
0	81977	1461.07	1300.07
0	82084	1462.07	1300.07
0	82191	1463.07	1300.07
0	82298	1464.07	1300.07
0	82405	1465.07	1300.07
0	82512	1466.07	1300.07
0	82619	1467.07	1300.07
0	82726	1468.07	1300.07
0	82833	1469.07	1300.07
0	82940	1470.07	1300.07
0	83047	1471.07	1300.07
0	83154	1472.07	1300.07
0	83261	1473.07	1300.07
0	83368	1474.07	1300.07
0	83475	1475.07	1300.07
0	83582	1476.07	1300.07
0	83689	1477.07	1300.07
0	83796	1478.07	1300.07
0	83903	1479.07	1300.07
0	84010	1480.07	1300.07
0	84117	1481.07	1300.07
0	84224	1482.07	1300.07
0	84331	1483.07	1300.07
0	84438	1484.07	1300.07
0	84545	1485.07	1300.07
0	84652	1486.07	1300.07
0	84759	1487.07	1300.07
0	84866	1488.07	1300.07
0	84973	1489.07	1300.07
0	85080	1490.07	1300.07
0	85187	1491.07	1300.07
0	85294	1492.07	1300.07
0	85401	1493.07	1300.07
0	85508	1494.07	1300.07
0	85615	1495.07	1300.07
0	85722	1496.07	1300.07
0	85829	1497.07	1300.07
0	85936	1498.07	1300.07
0	86043	1499.07	1300.07
0	86150	1500.07	1300.07
0	86257	1501.07	1300.07
0	86364	1502.07	1300.07
0	86471	1503.07	1300.07
0	86578	1504.07	1300.07
0	86685	1505.07	1300.07
0	86792	1506.07	1300.07
0	86899	1507.07	1300.07
0	87006	1508.07	1300.07
0	87113	1509.07	1300.07
0	87220	1510.07	1300.07
0	87327	1511.07	1300.07
0	87434	1512.07	1300.07
0	87541	1513.07	1300.07
0	87648	1514.07	1300.07
0	87755	1515.07	1300.07
0	87862	1516.07	1300.07
0	87969	1517.07	1300.07
0	88076	1518.07	1300.07
0	88183	1519.07	1300.07
0	88290	1520.07	1300.07
0	88397	1521.07	1300.07
0	88504	1522.07	1300.07
0	88611	1523.07	1300.07
0	88718	1524.07	1300.07
0	88825	1525.07	1300.07
0	88932	1526.07	1300.07
0	89039	1527.07	1300.07
0	89146	1528.07	1300.07
0	89253	1529.07	1300.07
0	89360	1530.07	1300.07
0	89467	1531.07	1300.07
0	89574	1532.07	1300.07
0	89681	1533.07	1300.07
0	89788	1534.07	1300.07
0	89895	1535.07	1300.07
0	90002	1536.07	1300.07
0	90109	1537.07	1300.07
0	90216	1538.07	1300.07
0	90323	1539.07	1300.07
0	90430	1540.07	1300.07
0	90537	1541.07	1300.07
0	90644	1542.07	1300.07
0	90751	1543.07	1300.07
0	90858	1544.07	1300.07
0	90965	1545.07	1300.07
0	91072	1546.07	1300.07
0	91179	1547.07	1300.07
0	91286	1548.07	1300.07
0	91393	1549.07	1300.07
0	91500	1550.07	1300.07
0	91607	1551.07	1300.07
0	91714	1552.07	1300.07
0	91821	1553.07	1300.07
0	91928	1554.07	1300.07
0	92035	1555.07	1300.07
0	92142	1556.07	1300.07
0	92249	1557.07	1300.07
0	94105	1558.07	1558.07
0	94106	1558.07	1557.07
0	94107	1558.07	1556.07
0	94108	1558.07	1555.07
0	94109	1558.07	1554.07
0	94110	1558.07	1553.07
0	94111	1558.07	1552.07
0	94112	1558.07	1551.07
0	94113	1558.07	1550.07
0	94114	1558.07	1549.07
0	94115	1558.07	1548.07
0	94116	1558.07	1547.07
0	94117	1558.07	1546.07
0	94118	1558.07	1545.07
0	94119	1558.07	1544.07
0	94120	1558.07	1543.07
0	94121	1558.07	1542.07
0	94122	1558.07	1541.07
0	94123	1558.07	1540.07
0	94124	1558.07	1539.07
0	94125	1558.07	1538.07
0	94126	1558.07	1537.07
0	94127	1558.07	1536.07
0	94128	1558.07	1535.07
0	94129	1558.07	1534.07
0	94130	1558.07	1533.07
0	94131	1558.07	1532.07
0	94132	1558.07	1531.07
0	94133	1558.07	1530.07
0	94134	1558.07	1529.07
0	94135	1558.07	1528.07
0	94136	1558.07	1527.07
0	94137	1558.07	1526.07
0	94138	1558.07	1525.07
0	94139	1558.07	1524.07
0	94140	1558.07	1523.07
0	94141	1558.07	1522.07
0	94142	1558.07	1521.07
0	94143	1558.07	1520.07
0	94144	1558.07	1519.07
0	94145	1558.07	1518.07
0	94146	1558.07	1517.07
0	94147	1558.07	1516.07
0	94148	1558.07	1515.07
0	94149	1558.07	1514.07
0	94150	1558.07	1513.07
0	94151	1558.07	1512.07
0	94152	1558.07	1511.07
0	94153	1558.07	1510.07
0	94154	1558.07	1509.07
0	94155	1558.07	1508.07
0	94156	1558.07	1507.07
0	94157	1558.07	1506.07
0	94158	1558.07	1505.07
0	94159	1558.07	1504.07
0	94160	1558.07	1503.07
0	94161	1558.07	1502.07
0	94162	1558.07	1501.07
0	94163	1558.07	1500.07
0	94164	1558.07	1499.07
0	94165	1558.07	1498.07
0	94166	1558.07	1497.07
0	94167	1558.07	1496.07
0	94168	1558.07	1495.07
0	94169	1558.07	1494.07
0	94170	1558.07	1493.07
0	94171	1558.07	1492.07
0	94172	1558.07	1491.07
0	94173	1558.07	1490.07
0	94174	1558.07	1489.07
0	94175	1558.07	1488.07
0	94176	1558.07	1487.07
0	94177	1558.07	1486.07
0	94178	1558.07	1485.07
0	94179	1558.07	1484.07
0	94180	1558.07	1483.07
0	94181	1558.07	1482.07
0	94182	1558.07	1481.07
0	94183	1558.07	1480.07
0	94184	1558.07	1479.07
0	94185	1558.07	1478.07
0	94186	1558.07	1477.07
0	94187	1558.07	1476.07
0	94188	1558.07	1475.07
0	94189	1558.07	1474.07
0	94190	1558.07	1473.07
0	94191	1558.07	1472.07
0	94192	1558.07	1471.07
0	94193	1558.07	1470.07
0	94194	1558.07	1469.07
0	94195	1558.07	1468.07
0	94196	1558.07	1467.07
0	94197	1558.07	1466.07
0	94198	1558.07	1465.07
0	94199	1558.07	1464.07
0	94200	1558.07	1463.07
0	94201	1558.07	1462.07
0	94202	1558.07	1461.07
0	94203	1558.07	1460.07
0	94204	1558.07	1459.07
0	94205	1558.07	1458.07
0	94206	1558.07	1457.07
0	94207	1558.07	1456.07
0	94208	1558.07	1455.07
0	94209	1558.07	1454.07
0	94210	1558.07	1453.07
0	94211	1558.07	1452.07
0	94212	1558.07	1451.07
0	94213	1558.07	1450.07
0	94214	1558.07	1449.07
0	94215	1558.07	1448.07
0	94216	1558.07	1447.07
0	94217	1558.07	1446.07
0	94218	1558.07	1445.07
0	94219	1558.07	1444.07
0	94220	1558.07	1443.07
0	94221	1558.07	1442.07
0	94222	1558.07	1441.07
0	94223	1558.07	1440.07
0	94224	1558.07	1439.07
0	94225	1558.07	1438.07
0	94226	1558.07	1437.07
0	94227	1558.07	1436.07
0	94228	1558.07	1435.07
0	94229	1558.07	1434.07
0	94230	1558.07	1433.07
0	94231	1558.07	1432.07
0	94232	1558.07	1431.07
0	94233	1558.07	1430.07
0	94234	1558.07	1429.07
0	94235	1558.07	1428.07
0	94236	1558.07	1427.07
0	94237	1558.07	1426.07
0	94238	1558.07	1425.07
0	94239	1558.07	1424.07
0	94240	1558.07	1423.07
0	94241	1558.07	1422.07
0	94242	1558.07	1421.07
0	94243	1558.07	1420.07
0	94244	1558.07	1419.07
0	94245	1558.07	1418.07
0	94246	1558.07	1417.07
0	94247	1558.07	1416.07
0	94248	1558.07	1415.07
0	94249	1558.07	1414.07
0	94250	1558.07	1413.07
0	94251	1558.07	1412.07
0	94252	1558.07	1411.07
0	94253	1558.07	1410.07
0	94254	1558.07	1409.07
0	94255	1558.07	1408.07
0	94256	1558.07	1407.07
0	94257	1558.07	1406.07
0	94258	1558.07	1405.07
0	94259	1558.07	1404.07
0	94260	1558.07	1403.07
0	94261	1558.07	1402.07
0	94262	1558.07	1401.07
0	94263	1558.07	1400.07
0	94264	1558.07	1300.07
0	96608	1559.07	1400.07
0	96609	1559.07	1300.07
0	96741	1560.07	1400.07
0	96742	1560.07	1300.07
0	96874	1561.07	1400.07
0	96875	1561.07	1300.07
0	97007	1562.07	1400.07
0	97008	1562.07	1300.07
0	97140	1563.07	1400.07
0	97141	1563.07	1300.07
0	97273	1564.07	1400.07
0	97274	1564.07	1300.07
0	97406	1565.07	1400.07
0	97407	1565.07	1300.07
0	97539	1566.07	1400.07
0	97540	1566.07	1300.07
0	97672	1567.07	1400.07
0	97673	1567.07	1300.07
0	97805	1568.07	1400.07
0	97806	1568.07	1300.07
0	97938	1569.07	1400.07
0	97939	1569.07	1300.07
0	98071	1570.07	1400.07
0	98072	1570.07	1300.07
0	98204	1571.07	1400.07
0	98205	1571.07	1300.07
0	98337	1572.07	1400.07
0	98338	1572.07	1300.07
0	98470	1573.07	1400.07
0	98471	1573.07	1300.07
0	98603	1574.07	1400.07
0	98604	1574.07	1300.07
0	98736	1575.07	1400.07
0	98737	1575.07	1300.07
0	98869	1576.07	1400.07
0	98870	1576.07	1300.07
0	99002	1577.07	1400.07
0	99003	1577.07	1300.07
0	99135	1578.07	1400.07
0	99136	1578.07	1300.07
0	99268	1579.07	1400.07
0	99269	1579.07	1300.07
0	99401	1580.07	1400.07
0	99402	1580.07	1300.07
0	99534	1581.07	1400.07
0	99535	1581.07	1300.07
0	99667	1582.07	1400.07
0	99668	1582.07	1300.07
0	99800	1583.07	1400.07
0	99801	1583.07	1300.07
0	99933	1584.07	1400.07
0	99934	1584.07	1300.07
0	100066	1585.07	1400.07
0	100067	1585.07	1300.07
0	100199	1586.07	1400.07
0	100200	1586.07	1300.07
0	100332	1587.07	1400.07
0	100333	1587.07	1300.07
0	100465	1588.07	1400.07
0	100466	1588.07	1300.07
0	100598	1589.07	1400.07
0	100599	1589.07	1300.07
0	100731	1590.07	1400.07
0	100732	1590.07	1300.07
0	100864	1591.07	1400.07
0	100865	1591.07	1300.07
0	100997	1592.07	1400.07
0	100998	1592.07	1300.07
0	101130	1593.07	1400.07
0	101131	1593.07	1300.07
0	101263	1594.07	1400.07
0	101264	1594.07	1300.07
0	101396	1595.07	1400.07
0	101397	1595.07	1300.07
0	101529	1596.07	1400.07
0	101530	1596.07	1300.07
0	101662	1597.07	1400.07
0	101663	1597.07	1300.07
0	101795	1598.07	1400.07
0	101796	1598.07	1300.07
0	101928	1599.07	1400.07
0	101929	1599.07	1300.07
0	102061	1600.07	1400.07
0	102062	1600.07	1300.07
0	102194	1601.07	1400.07
0	102195	1601.07	1300.07
0	102327	1602.07	1400.07
0	102328	1602.07	1300.07
0	102460	1603.07	1400.07
0	102461	1603.07	1300.07
0	102593	1604.07	1400.07
0	102594	1604.07	1300.07
0	102726	1605.07	1400.07
0	102727	1605.07	1300.07
0	102859	1606.07	1400.07
0	102860	1606.07	1300.07
0	102992	1607.07	1400.07
0	102993	1607.07	1300.07
0	103125	1608.07	1400.07
0	103126	1608.07	1300.07
0	103258	1609.07	1400.07
0	103259	1609.07	1300.07
0	103391	1610.07	1400.07
0	103392	1610.07	1300.07
0	103524	1611.07	1400.07
0	103525	1611.07	1300.07
0	103657	1612.07	1400.07
0	103658	1612.07	1300.07
0	103790	1613.07	1400.07
0	103791	1613.07	1300.07
0	103923	1614.07	1400.07
0	103924	1614.07	1300.07
0	104056	1615.07	1400.07
0	104057	1615.07	1300.07
0	104189	1616.07	1400.07
0	104190	1616.07	1300.07
0	104322	1617.07	1400.07
0	104323	1617.07	1300.07
0	104455	1618.07	1400.07
0	104456	1618.07	1300.07
0	104588	1619.07	1400.07
0	104589	1619.07	1300.07
0	104721	1620.07	1400.07
0	104722	1620.07	1300.07
0	104854	1621.07	1400.07
0	104855	1621.07	1300.07
0	104987	1622.07	1400.07
0	104988	1622.07	1300.07
0	105120	1623.07	1400.07
0	105121	1623.07	1300.07
0	105253	1624.07	1400.07
0	105254	1624.07	1300.07
0	105386	1625.07	1400.07
0	105387	1625.07	1300.07
0	105519	1626.07	1400.07
0	105520	1626.07	1300.07
0	105652	1627.07	1400.07
0	105653	1627.07	1300.07
0	105785	1628.07	1400.07
0	105786	1628.07	1300.07
0	105918	1629.07	1400.07
0	105919	1629.07	1300.07
0	106051	1630.07	1400.07
0	106052	1630.07	1300.07
0	106184	1631.07	1400.07
0	106185	1631.07	1300.07
0	106317	1632.07	1400.07
0	106318	1632.07	1300.07
0	106450	1633.07	1400.07
0	106451	1633.07	1300.07
0	106583	1634.07	1400.07
0	106584	1634.07	1300.07
0	106716	1635.07	1400.07
0	106717	1635.07	1300.07
0	106849	1636.07	1400.07
0	106850	1636.07	1300.07
0	106982	1637.07	1400.07
0	106983	1637.07	1300.07
0	107115	1638.07	1400.07
0	107116	1638.07	1300.07
0	107248	1639.07	1400.07
0	107249	1639.07	1300.07
0	107381	1640.07	1400.07
0	107382	1640.07	1300.07
0	107514	1641.07	1400.07
0	107515	1641.07	1300.07
0	107647	1642.07	1400.07
0	107648	1642.07	1300.07
0	107780	1643.07	1400.07
0	107781	1643.07	1300.07
0	107913	1644.07	1400.07
0	107914	1644.07	1300.07
0	108046	1645.07	1400.07
0	108047	1645.07	1300.07
0	108179	1646.07	1400.07
0	108180	1646.07	1300.07
0	108312	1647.07	1400.07
0	108313	1647.07	1300.07
0	108445	1648.07	1400.07
0	108446	1648.07	1300.07
0	108578	1649.07	1400.07
0	108579	1649.07	1300.07
0	108711	1650.07	1400.07
0	108712	1650.07	1300.07
0	108844	1651.07	1400.07
0	108845	1651.07	1300.07
0	108977	1652.07	1400.07
0	108978	1652.07	1300.07
0	109110	1653.07	1400.07
0	109111	1653.07	1300.07
0	109243	1654.07	1400.07
0	109244	1654.07	1300.07
0	109376	1655.07	1400.07
0	109377	1655.07	1300.07
0	109509	1656.07	1400.07
0	109510	1656.07	1300.07
0	109642	1657.07	1400.07
0	109643	1657.07	1300.07
0	111524	1658.07	1658.07
0	111525	1658.07	1657.07
0	111526	1658.07	1656.07
0	111527	1658.07	1655.07
0	111528	1658.07	1654.07
0	111529	1658.07	1653.07
0	111530	1658.07	1652.07
0	111531	1658.07	1651.07
0	111532	1658.07	1650.07
0	111533	1658.07	1649.07
0	111534	1658.07	1648.07
0	111535	1658.07	1647.07
0	111536	1658.07	1646.07
0	111537	1658.07	1645.07
0	111538	1658.07	1644.07
0	111539	1658.07	1643.07
0	111540	1658.07	1642.07
0	111541	1658.07	1641.07
0	111542	1658.07	1640.07
0	111543	1658.07	1639.07
0	111544	1658.07	1638.07
0	111545	1658.07	1637.07
0	111546	1658.07	1636.07
0	111547	1658.07	1635.07
0	111548	1658.07	1634.07
0	111549	1658.07	1633.07
0	111550	1658.07	1632.07
0	111551	1658.07	1631.07
0	111552	1658.07	1630.07
0	111553	1658.07	1629.07
0	111554	1658.07	1628.07
0	111555	1658.07	1627.07
0	111556	1658.07	1626.07
0	111557	1658.07	1625.07
0	111558	1658.07	1624.07
0	111559	1658.07	1623.07
0	111560	1658.07	1622.07
0	111561	1658.07	1621.07
0	111562	1658.07	1620.07
0	111563	1658.07	1619.07
0	111564	1658.07	1618.07
0	111565	1658.07	1617.07
0	111566	1658.07	1616.07
0	111567	1658.07	1615.07
0	111568	1658.07	1614.07
0	111569	1658.07	1613.07
0	111570	1658.07	1612.07
0	111571	1658.07	1611.07
0	111572	1658.07	1610.07
0	111573	1658.07	1609.07
0	111574	1658.07	1608.07
0	111575	1658.07	1607.07
0	111576	1658.07	1606.07
0	111577	1658.07	1605.07
0	111578	1658.07	1604.07
0	111579	1658.07	1603.07
0	111580	1658.07	1602.07
0	111581	1658.07	1601.07
0	111582	1658.07	1600.07
0	111583	1658.07	1599.07
0	111584	1658.07	1598.07
0	111585	1658.07	1597.07
0	111586	1658.07	1596.07
0	111587	1658.07	1595.07
0	111588	1658.07	1594.07
0	111589	1658.07	1593.07
0	111590	1658.07	1592.07
0	111591	1658.07	1591.07
0	111592	1658.07	1590.07
0	111593	1658.07	1589.07
0	111594	1658.07	1588.07
0	111595	1658.07	1587.07
0	111596	1658.07	1586.07
0	111597	1658.07	1585.07
0	111598	1658.07	1584.07
0	111599	1658.07	1583.07
0	111600	1658.07	1582.07
0	111601	1658.07	1581.07
0	111602	1658.07	1580.07
0	111603	1658.07	1579.07
0	111604	1658.07	1578.07
0	111605	1658.07	1577.07
0	111606	1658.07	1576.07
0	111607	1658.07	1575.07
0	111608	1658.07	1574.07
0	111609	1658.07	1573.07
0	111610	1658.07	1572.07
0	111611	1658.07	1571.07
0	111612	1658.07	1570.07
0	111613	1658.07	1569.07
0	111614	1658.07	1568.07
0	111615	1658.07	1567.07
0	111616	1658.07	1566.07
0	111617	1658.07	1565.07
0	111618	1658.07	1564.07
0	111619	1658.07	1563.07
0	111620	1658.07	1562.07
0	111621	1658.07	1561.07
0	111622	1658.07	1560.07
0	111623	1658.07	1559.07
0	111624	1658.07	1558.07
0	111625	1658.07	1557.07
0	111626	1658.07	1556.07
0	111627	1658.07	1555.07
0	111628	1658.07	1554.07
0	111629	1658.07	1553.07
0	111630	1658.07	1552.07
0	111631	1658.07	1551.07
0	111632	1658.07	1550.07
0	111633	1658.07	1549.07
0	111634	1658.07	1548.07
0	111635	1658.07	1547.07
0	111636	1658.07	1546.07
0	111637	1658.07	1545.07
0	111638	1658.07	1544.07
0	111639	1658.07	1543.07
0	111640	1658.07	1542.07
0	111641	1658.07	1541.07
0	111642	1658.07	1540.07
0	111643	1658.07	1539.07
0	111644	1658.07	1538.07
0	111645	1658.07	1537.07
0	111646	1658.07	1536.07
0	111647	1658.07	1535.07
0	111648	1658.07	1534.07
0	111649	1658.07	1533.07
0	111650	1658.07	1532.07
0	111651	1658.07	1531.07
0	111652	1658.07	1530.07
0	111653	1658.07	1529.07
0	111654	1658.07	1528.07
0	111655	1658.07	1527.07
0	111656	1658.07	1526.07
0	111657	1658.07	1525.07
0	111658	1658.07	1524.07
0	111659	1658.07	1523.07
0	111660	1658.07	1522.07
0	111661	1658.07	1521.07
0	111662	1658.07	1520.07
0	111663	1658.07	1519.07
0	111664	1658.07	1518.07
0	111665	1658.07	1517.07
0	111666	1658.07	1516.07
0	111667	1658.07	1515.07
0	111668	1658.07	1514.07
0	111669	1658.07	1513.07
0	111670	1658.07	1512.07
0	111671	1658.07	1511.07
0	111672	1658.07	1510.07
0	111673	1658.07	1509.07
0	111674	1658.07	1508.07
0	111675	1658.07	1507.07
0	111676	1658.07	1506.07
0	111677	1658.07	1505.07
0	111678	1658.07	1504.07
0	111679	1658.07	1503.07
0	111680	1658.07	1502.07
0	111681	1658.07	1501.07
0	111682	1658.07	1500.07
0	111683	1658.07	1400.07
0	111684	1658.07	1300.07
0	114053	1659.07	1500.07
0	114054	1659.07	1400.07
0	114055	1659.07	1300.07
0	114212	1660.07	1500.07
0	114213	1660.07	1400.07
0	114214	1660.07	1300.07
0	114371	1661.07	1500.07
0	114372	1661.07	1400.07
0	114373	1661.07	1300.07
0	114530	1662.07	1500.07
0	114531	1662.07	1400.07
0	114532	1662.07	1300.07
0	114689	1663.07	1500.07
0	114690	1663.07	1400.07
0	114691	1663.07	1300.07
0	114848	1664.07	1500.07
0	114849	1664.07	1400.07
0	114850	1664.07	1300.07
0	115007	1665.07	1500.07
0	115008	1665.07	1400.07
0	115009	1665.07	1300.07
0	115166	1666.07	1500.07
0	115167	1666.07	1400.07
0	115168	1666.07	1300.07
0	115325	1667.07	1500.07
0	115326	1667.07	1400.07
0	115327	1667.07	1300.07
0	115484	1668.07	1500.07
0	115485	1668.07	1400.07
0	115486	1668.07	1300.07
0	115643	1669.07	1500.07
0	115644	1669.07	1400.07
0	115645	1669.07	1300.07
0	115802	1670.07	1500.07
0	115803	1670.07	1400.07
0	115804	1670.07	1300.07
0	115961	1671.07	1500.07
0	115962	1671.07	1400.07
0	115963	1671.07	1300.07
0	116120	1672.07	1500.07
0	116121	1672.07	1400.07
0	116122	1672.07	1300.07
0	116279	1673.07	1500.07
0	116280	1673.07	1400.07
0	116281	1673.07	1300.07
0	116438	1674.07	1500.07
0	116439	1674.07	1400.07
0	116440	1674.07	1300.07
0	116597	1675.07	1500.07
0	116598	1675.07	1400.07
0	116599	1675.07	1300.07
0	116756	1676.07	1500.07
0	116757	1676.07	1400.07
0	116758	1676.07	1300.07
0	116915	1677.07	1500.07
0	116916	1677.07	1400.07
0	116917	1677.07	1300.07
0	117074	1678.07	1500.07
0	117075	1678.07	1400.07
0	117076	1678.07	1300.07
0	117233	1679.07	1500.07
0	117234	1679.07	1400.07
0	117235	1679.07	1300.07
0	117392	1680.07	1500.07
0	117393	1680.07	1400.07
0	117394	1680.07	1300.07
0	117551	1681.07	1500.07
0	117552	1681.07	1400.07
0	117553	1681.07	1300.07
0	117710	1682.07	1500.07
0	117711	1682.07	1400.07
0	117712	1682.07	1300.07
0	117869	1683.07	1500.07
0	117870	1683.07	1400.07
0	117871	1683.07	1300.07
0	118028	1684.07	1500.07
0	118029	1684.07	1400.07
0	118030	1684.07	1300.07
0	118187	1685.07	1500.07
0	118188	1685.07	1400.07
0	118189	1685.07	1300.07
0	118346	1686.07	1500.07
0	118347	1686.07	1400.07
0	118348	1686.07	1300.07
0	118505	1687.07	1500.07
0	118506	1687.07	1400.07
0	118507	1687.07	1300.07
0	118664	1688.07	1500.07
0	118665	1688.07	1400.07
0	118666	1688.07	1300.07
0	118823	1689.07	1500.07
0	118824	1689.07	1400.07
0	118825	1689.07	1300.07
0	118982	1690.07	1500.07
0	118983	1690.07	1400.07
0	118984	1690.07	1300.07
0	119141	1691.07	1500.07
0	119142	1691.07	1400.07
0	119143	1691.07	1300.07
0	119300	1692.07	1500.07
0	119301	1692.07	1400.07
0	119302	1692.07	1300.07
0	119459	1693.07	1500.07
0	119460	1693.07	1400.07
0	119461	1693.07	1300.07
0	119618	1694.07	1500.07
0	119619	1694.07	1400.07
0	119620	1694.07	1300.07
0	119777	1695.07	1500.07
0	119778	1695.07	1400.07
0	119779	1695.07	1300.07
0	119936	1696.07	1500.07
0	119937	1696.07	1400.07
0	119938	1696.07	1300.07
0	120095	1697.07	1500.07
0	120096	1697.07	1400.07
0	120097	1697.07	1300.07
0	120254	1698.07	1500.07
0	120255	1698.07	1400.07
0	120256	1698.07	1300.07
0	120413	1699.07	1500.07
0	120414	1699.07	1400.07
0	120415	1699.07	1300.07
0	120572	1700.07	1500.07
0	120573	1700.07	1400.07
0	120574	1700.07	1300.07
0	120731	1701.07	1500.07
0	120732	1701.07	1400.07
0	120733	1701.07	1300.07
0	120890	1702.07	1500.07
0	120891	1702.07	1400.07
0	120892	1702.07	1300.07
0	121049	1703.07	1500.07
0	121050	1703.07	1400.07
0	121051	1703.07	1300.07
0	121208	1704.07	1500.07
0	121209	1704.07	1400.07
0	121210	1704.07	1300.07
0	121367	1705.07	1500.07
0	121368	1705.07	1400.07
0	121369	1705.07	1300.07
0	121526	1706.07	1500.07
0	121527	1706.07	1400.07
0	121528	1706.07	1300.07
0	121685	1707.07	1500.07
0	121686	1707.07	1400.07
0	121687	1707.07	1300.07
0	121844	1708.07	1500.07
0	121845	1708.07	1400.07
0	121846	1708.07	1300.07
0	122003	1709.07	1500.07
0	122004	1709.07	1400.07
0	122005	1709.07	1300.07
0	122162	1710.07	1500.07
0	122163	1710.07	1400.07
0	122164	1710.07	1300.07
0	122321	1711.07	1500.07
0	122322	1711.07	1400.07
0	122323	1711.07	1300.07
0	122480	1712.07	1500.07
0	122481	1712.07	1400.07
0	122482	1712.07	1300.07
0	122639	1713.07	1500.07
0	122640	1713.07	1400.07
0	122641	1713.07	1300.07
0	122798	1714.07	1500.07
0	122799	1714.07	1400.07
0	122800	1714.07	1300.07
0	122957	1715.07	1500.07
0	122958	1715.07	1400.07
0	122959	1715.07	1300.07
0	123116	1716.07	1500.07
0	123117	1716.07	1400.07
0	123118	1716.07	1300.07
0	123275	1717.07	1500.07
0	123276	1717.07	1400.07
0	123277	1717.07	1300.07
0	123434	1718.07	1500.07
0	123435	1718.07	1400.07
0	123436	1718.07	1300.07
0	123593	1719.07	1500.07
0	123594	1719.07	1400.07
0	123595	1719.07	1300.07
0	123752	1720.07	1500.07
0	123753	1720.07	1400.07
0	123754	1720.07	1300.07
0	123911	1721.07	1500.07
0	123912	1721.07	1400.07
0	123913	1721.07	1300.07
0	124070	1722.07	1500.07
0	124071	1722.07	1400.07
0	124072	1722.07	1300.07
0	124229	1723.07	1500.07
0	124230	1723.07	1400.07
0	124231	1723.07	1300.07
0	124388	1724.07	1500.07
0	124389	1724.07	1400.07
0	124390	1724.07	1300.07
0	124547	1725.07	1500.07
0	124548	1725.07	1400.07
0	124549	1725.07	1300.07
0	124706	1726.07	1500.07
0	124707	1726.07	1400.07
0	124708	1726.07	1300.07
0	124865	1727.07	1500.07
0	124866	1727.07	1400.07
0	124867	1727.07	1300.07
0	125024	1728.07	1500.07
0	125025	1728.07	1400.07
0	125026	1728.07	1300.07
0	125183	1729.07	1500.07
0	125184	1729.07	1400.07
0	125185	1729.07	1300.07
0	125342	1730.07	1500.07
0	125343	1730.07	1400.07
0	125344	1730.07	1300.07
0	125501	1731.07	1500.07
0	125502	1731.07	1400.07
0	125503	1731.07	1300.07
0	125660	1732.07	1500.07
0	125661	1732.07	1400.07
0	125662	1732.07	1300.07
0	125819	1733.07	1500.07
0	125820	1733.07	1400.07
0	125821	1733.07	1300.07
0	125978	1734.07	1500.07
0	125979	1734.07	1400.07
0	125980	1734.07	1300.07
0	126137	1735.07	1500.07
0	126138	1735.07	1400.07
0	126139	1735.07	1300.07
0	126296	1736.07	1500.07
0	126297	1736.07	1400.07
0	126298	1736.07	1300.07
0	126455	1737.07	1500.07
0	126456	1737.07	1400.07
0	126457	1737.07	1300.07
0	126614	1738.07	1500.07
0	126615	1738.07	1400.07
0	126616	1738.07	1300.07
0	126773	1739.07	1500.07
0	126774	1739.07	1400.07
0	126775	1739.07	1300.07
0	126932	1740.07	1500.07
0	126933	1740.07	1400.07
0	126934	1740.07	1300.07
0	127091	1741.07	1500.07
0	127092	1741.07	1400.07
0	127093	1741.07	1300.07
0	127250	1742.07	1500.07
0	127251	1742.07	1400.07
0	127252	1742.07	1300.07
0	127409	1743.07	1500.07
0	127410	1743.07	1400.07
0	127411	1743.07	1300.07
0	127568	1744.07	1500.07
0	127569	1744.07	1400.07
0	127570	1744.07	1300.07
0	127727	1745.07	1500.07
0	127728	1745.07	1400.07
0	127729	1745.07	1300.07
0	127886	1746.07	1500.07
0	127887	1746.07	1400.07
0	127888	1746.07	1300.07
0	128045	1747.07	1500.07
0	128046	1747.07	1400.07
0	128047	1747.07	1300.07
0	128204	1748.07	1500.07
0	128205	1748.07	1400.07
0	128206	1748.07	1300.07
0	128363	1749.07	1500.07
0	128364	1749.07	1400.07
0	128365	1749.07	1300.07
0	128522	1750.07	1500.07
0	128523	1750.07	1400.07
0	128524	1750.07	1300.07
0	128681	1751.07	1500.07
0	128682	1751.07	1400.07
0	128683	1751.07	1300.07
0	128840	1752.07	1500.07
0	128841	1752.07	1400.07
0	128842	1752.07	1300.07
0	128999	1753.07	1500.07
0	129000	1753.07	1400.07
0	129001	1753.07	1300.07
0	129158	1754.07	1500.07
0	129159	1754.07	1400.07
0	129160	1754.07	1300.07
0	129317	1755.07	1500.07
0	129318	1755.07	1400.07
0	129319	1755.07	1300.07
0	129476	1756.07	1500.07
0	129477	1756.07	1400.07
0	129478	1756.07	1300.07
0	129635	1757.07	1500.07
0	129636	1757.07	1400.07
0	129637	1757.07	1300.07
0	131543	1758.07	1758.07
0	131544	1758.07	1757.07
0	131545	1758.07	1756.07
0	131546	1758.07	1755.07
0	131547	1758.07	1754.07
0	131548	1758.07	1753.07
0	131549	1758.07	1752.07
0	131550	1758.07	1751.07
0	131551	1758.07	1750.07
0	131552	1758.07	1749.07
0	131553	1758.07	1748.07
0	131554	1758.07	1747.07
0	131555	1758.07	1746.07
0	131556	1758.07	1745.07
0	131557	1758.07	1744.07
0	131558	1758.07	1743.07
0	131559	1758.07	1742.07
0	131560	1758.07	1741.07
0	131561	1758.07	1740.07
0	131562	1758.07	1739.07
0	131563	1758.07	1738.07
0	131564	1758.07	1737.07
0	131565	1758.07	1736.07
0	131566	1758.07	1735.07
0	131567	1758.07	1734.07
0	131568	1758.07	1733.07
0	131569	1758.07	1732.07
0	131570	1758.07	1731.07
0	131571	1758.07	1730.07
0	131572	1758.07	1729.07
0	131573	1758.07	1728.07
0	131574	1758.07	1727.07
0	131575	1758.07	1726.07
0	131576	1758.07	1725.07
0	131577	1758.07	1724.07
0	131578	1758.07	1723.07
0	131579	1758.07	1722.07
0	131580	1758.07	1721.07
0	131581	1758.07	1720.07
0	131582	1758.07	1719.07
0	131583	1758.07	1718.07
0	131584	1758.07	1717.07
0	131585	1758.07	1716.07
0	131586	1758.07	1715.07
0	131587	1758.07	1714.07
0	131588	1758.07	1713.07
0	131589	1758.07	1712.07
0	131590	1758.07	1711.07
0	131591	1758.07	1710.07
0	131592	1758.07	1709.07
0	131593	1758.07	1708.07
0	131594	1758.07	1707.07
0	131595	1758.07	1706.07
0	131596	1758.07	1705.07
0	131597	1758.07	1704.07
0	131598	1758.07	1703.07
0	131599	1758.07	1702.07
0	131600	1758.07	1701.07
0	131601	1758.07	1700.07
0	131602	1758.07	1699.07
0	131603	1758.07	1698.07
0	131604	1758.07	1697.07
0	131605	1758.07	1696.07
0	131606	1758.07	1695.07
0	131607	1758.07	1694.07
0	131608	1758.07	1693.07
0	131609	1758.07	1692.07
0	131610	1758.07	1691.07
0	131611	1758.07	1690.07
0	131612	1758.07	1689.07
0	131613	1758.07	1688.07
0	131614	1758.07	1687.07
0	131615	1758.07	1686.07
0	131616	1758.07	1685.07
0	131617	1758.07	1684.07
0	131618	1758.07	1683.07
0	131619	1758.07	1682.07
0	131620	1758.07	1681.07
0	131621	1758.07	1680.07
0	131622	1758.07	1679.07
0	131623	1758.07	1678.07
0	131624	1758.07	1677.07
0	131625	1758.07	1676.07
0	131626	1758.07	1675.07
0	131627	1758.07	1674.07
0	131628	1758.07	1673.07
0	131629	1758.07	1672.07
0	131630	1758.07	1671.07
0	131631	1758.07	1670.07
0	131632	1758.07	1669.07
0	131633	1758.07	1668.07
0	131634	1758.07	1667.07
0	131635	1758.07	1666.07
0	131636	1758.07	1665.07
0	131637	1758.07	1664.07
0	131638	1758.07	1663.07
0	131639	1758.07	1662.07
0	131640	1758.07	1661.07
0	131641	1758.07	1660.07
0	131642	1758.07	1659.07
0	131643	1758.07	1658.07
0	131644	1758.07	1657.07
0	131645	1758.07	1656.07
0	131646	1758.07	1655.07
0	131647	1758.07	1654.07
0	131648	1758.07	1653.07
0	131649	1758.07	1652.07
0	131650	1758.07	1651.07
0	131651	1758.07	1650.07
0	131652	1758.07	1649.07
0	131653	1758.07	1648.07
0	131654	1758.07	1647.07
0	131655	1758.07	1646.07
0	131656	1758.07	1645.07
0	131657	1758.07	1644.07
0	131658	1758.07	1643.07
0	131659	1758.07	1642.07
0	131660	1758.07	1641.07
0	131661	1758.07	1640.07
0	131662	1758.07	1639.07
0	131663	1758.07	1638.07
0	131664	1758.07	1637.07
0	131665	1758.07	1636.07
0	131666	1758.07	1635.07
0	131667	1758.07	1634.07
0	131668	1758.07	1633.07
0	131669	1758.07	1632.07
0	131670	1758.07	1631.07
0	131671	1758.07	1630.07
0	131672	1758.07	1629.07
0	131673	1758.07	1628.07
0	131674	1758.07	1627.07
0	131675	1758.07	1626.07
0	131676	1758.07	1625.07
0	131677	1758.07	1624.07
0	131678	1758.07	1623.07
0	131679	1758.07	1622.07
0	131680	1758.07	1621.07
0	131681	1758.07	1620.07
0	131682	1758.07	1619.07
0	131683	1758.07	1618.07
0	131684	1758.07	1617.07
0	131685	1758.07	1616.07
0	131686	1758.07	1615.07
0	131687	1758.07	1614.07
0	131688	1758.07	1613.07
0	131689	1758.07	1612.07
0	131690	1758.07	1611.07
0	131691	1758.07	1610.07
0	131692	1758.07	1609.07
0	131693	1758.07	1608.07
0	131694	1758.07	1607.07
0	131695	1758.07	1606.07
0	131696	1758.07	1605.07
0	131697	1758.07	1604.07
0	131698	1758.07	1603.07
0	131699	1758.07	1602.07
0	131700	1758.07	1601.07
0	131701	1758.07	1600.07
0	131702	1758.07	1500.07
0	131703	1758.07	1400.07
0	131704	1758.07	1300.07
0	134098	1759.07	1600.07
0	134099	1759.07	1500.07
0	134100	1759.07	1400.07
0	134101	1759.07	1300.07
0	134283	1760.07	1600.07
0	134284	1760.07	1500.07
0	134285	1760.07	1400.07
0	134286	1760.07	1300.07
0	134468	1761.07	1600.07
0	134469	1761.07	1500.07
0	134470	1761.07	1400.07
0	134471	1761.07	1300.07
0	134653	1762.07	1600.07
0	134654	1762.07	1500.07
0	134655	1762.07	1400.07
0	134656	1762.07	1300.07
0	134838	1763.07	1600.07
0	134839	1763.07	1500.07
0	134840	1763.07	1400.07
0	134841	1763.07	1300.07
0	135023	1764.07	1600.07
0	135024	1764.07	1500.07
0	135025	1764.07	1400.07
0	135026	1764.07	1300.07
0	135208	1765.07	1600.07
0	135209	1765.07	1500.07
0	135210	1765.07	1400.07
0	135211	1765.07	1300.07
0	135393	1766.07	1600.07
0	135394	1766.07	1500.07
0	135395	1766.07	1400.07
0	135396	1766.07	1300.07
0	135578	1767.07	1600.07
0	135579	1767.07	1500.07
0	135580	1767.07	1400.07
0	135581	1767.07	1300.07
0	135763	1768.07	1600.07
0	135764	1768.07	1500.07
0	135765	1768.07	1400.07
0	135766	1768.07	1300.07
0	135948	1769.07	1600.07
0	135949	1769.07	1500.07
0	135950	1769.07	1400.07
0	135951	1769.07	1300.07
0	136133	1770.07	1600.07
0	136134	1770.07	1500.07
0	136135	1770.07	1400.07
0	136136	1770.07	1300.07
0	136318	1771.07	1600.07
0	136319	1771.07	1500.07
0	136320	1771.07	1400.07
0	136321	1771.07	1300.07
0	136503	1772.07	1600.07
0	136504	1772.07	1500.07
0	136505	1772.07	1400.07
0	136506	1772.07	1300.07
0	136688	1773.07	1600.07
0	136689	1773.07	1500.07
0	136690	1773.07	1400.07
0	136691	1773.07	1300.07
0	136873	1774.07	1600.07
0	136874	1774.07	1500.07
0	136875	1774.07	1400.07
0	136876	1774.07	1300.07
0	137058	1775.07	1600.07
0	137059	1775.07	1500.07
0	137060	1775.07	1400.07
0	137061	1775.07	1300.07
0	137243	1776.07	1600.07
0	137244	1776.07	1500.07
0	137245	1776.07	1400.07
0	137246	1776.07	1300.07
0	137428	1777.07	1600.07
0	137429	1777.07	1500.07
0	137430	1777.07	1400.07
0	137431	1777.07	1300.07
0	137613	1778.07	1600.07
0	137614	1778.07	1500.07
0	137615	1778.07	1400.07
0	137616	1778.07	1300.07
0	137798	1779.07	1600.07
0	137799	1779.07	1500.07
0	137800	1779.07	1400.07
0	137801	1779.07	1300.07
0	137983	1780.07	1600.07
0	137984	1780.07	1500.07
0	137985	1780.07	1400.07
0	137986	1780.07	1300.07
0	138168	1781.07	1600.07
0	138169	1781.07	1500.07
0	138170	1781.07	1400.07
0	138171	1781.07	1300.07
0	138353	1782.07	1600.07
0	138354	1782.07	1500.07
0	138355	1782.07	1400.07
0	138356	1782.07	1300.07
0	138538	1783.07	1600.07
0	138539	1783.07	1500.07
0	138540	1783.07	1400.07
0	138541	1783.07	1300.07
0	138723	1784.07	1600.07
0	138724	1784.07	1500.07
0	138725	1784.07	1400.07
0	138726	1784.07	1300.07
0	138908	1785.07	1600.07
0	138909	1785.07	1500.07
0	138910	1785.07	1400.07
0	138911	1785.07	1300.07
0	139093	1786.07	1600.07
0	139094	1786.07	1500.07
0	139095	1786.07	1400.07
0	139096	1786.07	1300.07
0	139278	1787.07	1600.07
0	139279	1787.07	1500.07
0	139280	1787.07	1400.07
0	139281	1787.07	1300.07
0	139463	1788.07	1600.07
0	139464	1788.07	1500.07
0	139465	1788.07	1400.07
0	139466	1788.07	1300.07
0	139648	1789.07	1600.07
0	139649	1789.07	1500.07
0	139650	1789.07	1400.07
0	139651	1789.07	1300.07
0	139833	1790.07	1600.07
0	139834	1790.07	1500.07
0	139835	1790.07	1400.07
0	139836	1790.07	1300.07
0	140018	1791.07	1600.07
0	140019	1791.07	1500.07
0	140020	1791.07	1400.07
0	140021	1791.07	1300.07
0	140203	1792.07	1600.07
0	140204	1792.07	1500.07
0	140205	1792.07	1400.07
0	140206	1792.07	1300.07
0	140388	1793.07	1600.07
0	140389	1793.07	1500.07
0	140390	1793.07	1400.07
0	140391	1793.07	1300.07
0	140573	1794.07	1600.07
0	140574	1794.07	1500.07
0	140575	1794.07	1400.07
0	140576	1794.07	1300.07
0	140758	1795.07	1600.07
0	140759	1795.07	1500.07
0	140760	1795.07	1400.07
0	140761	1795.07	1300.07
0	140943	1796.07	1600.07
0	140944	1796.07	1500.07
0	140945	1796.07	1400.07
0	140946	1796.07	1300.07
0	141128	1797.07	1600.07
0	141129	1797.07	1500.07
0	141130	1797.07	1400.07
0	141131	1797.07	1300.07
0	141313	1798.07	1600.07
0	141314	1798.07	1500.07
0	141315	1798.07	1400.07
0	141316	1798.07	1300.07
0	141498	1799.07	1600.07
0	141499	1799.07	1500.07
0	141500	1799.07	1400.07
0	141501	1799.07	1300.07
0	141683	1800.07	1600.07
0	141684	1800.07	1500.07
0	141685	1800.07	1400.07
0	141686	1800.07	1300.07
0	141868	1801.07	1600.07
0	141869	1801.07	1500.07
0	141870	1801.07	1400.07
0	141871	1801.07	1300.07
0	142053	1802.07	1600.07
0	142054	1802.07	1500.07
0	142055	1802.07	1400.07
0	142056	1802.07	1300.07
0	142238	1803.07	1600.07
0	142239	1803.07	1500.07
0	142240	1803.07	1400.07
0	142241	1803.07	1300.07
0	142423	1804.07	1600.07
0	142424	1804.07	1500.07
0	142425	1804.07	1400.07
0	142426	1804.07	1300.07
0	142608	1805.07	1600.07
0	142609	1805.07	1500.07
0	142610	1805.07	1400.07
0	142611	1805.07	1300.07
0	142793	1806.07	1600.07
0	142794	1806.07	1500.07
0	142795	1806.07	1400.07
0	142796	1806.07	1300.07
0	142978	1807.07	1600.07
0	142979	1807.07	1500.07
0	142980	1807.07	1400.07
0	142981	1807.07	1300.07
0	143163	1808.07	1600.07
0	143164	1808.07	1500.07
0	143165	1808.07	1400.07
0	143166	1808.07	1300.07
0	143348	1809.07	1600.07
0	143349	1809.07	1500.07
0	143350	1809.07	1400.07
0	143351	1809.07	1300.07
0	143533	1810.07	1600.07
0	143534	1810.07	1500.07
0	143535	1810.07	1400.07
0	143536	1810.07	1300.07
0	143718	1811.07	1600.07
0	143719	1811.07	1500.07
0	143720	1811.07	1400.07
0	143721	1811.07	1300.07
0	143903	1812.07	1600.07
0	143904	1812.07	1500.07
0	143905	1812.07	1400.07
0	143906	1812.07	1300.07
0	144088	1813.07	1600.07
0	144089	1813.07	1500.07
0	144090	1813.07	1400.07
0	144091	1813.07	1300.07
0	144273	1814.07	1600.07
0	144274	1814.07	1500.07
0	144275	1814.07	1400.07
0	144276	1814.07	1300.07
0	144458	1815.07	1600.07
0	144459	1815.07	1500.07
0	144460	1815.07	1400.07
0	144461	1815.07	1300.07
0	144643	1816.07	1600.07
0	144644	1816.07	1500.07
0	144645	1816.07	1400.07
0	144646	1816.07	1300.07
0	144828	1817.07	1600.07
0	144829	1817.07	1500.07
0	144830	1817.07	1400.07
0	144831	1817.07	1300.07
0	145013	1818.07	1600.07
0	145014	1818.07	1500.07
0	145015	1818.07	1400.07
0	145016	1818.07	1300.07
0	145198	1819.07	1600.07
0	145199	1819.07	1500.07
0	145200	1819.07	1400.07
0	145201	1819.07	1300.07
0	145383	1820.07	1600.07
0	145384	1820.07	1500.07
0	145385	1820.07	1400.07
0	145386	1820.07	1300.07
0	145568	1821.07	1600.07
0	145569	1821.07	1500.07
0	145570	1821.07	1400.07
0	145571	1821.07	1300.07
0	145753	1822.07	1600.07
0	145754	1822.07	1500.07
0	145755	1822.07	1400.07
0	145756	1822.07	1300.07
0	145938	1823.07	1600.07
0	145939	1823.07	1500.07
0	145940	1823.07	1400.07
0	145941	1823.07	1300.07
0	146123	1824.07	1600.07
0	146124	1824.07	1500.07
0	146125	1824.07	1400.07
0	146126	1824.07	1300.07
0	146308	1825.07	1600.07
0	146309	1825.07	1500.07
0	146310	1825.07	1400.07
0	146311	1825.07	1300.07
0	146493	1826.07	1600.07
0	146494	1826.07	1500.07
0	146495	1826.07	1400.07
0	146496	1826.07	1300.07
0	146678	1827.07	1600.07
0	146679	1827.07	1500.07
0	146680	1827.07	1400.07
0	146681	1827.07	1300.07
0	146863	1828.07	1600.07
0	146864	1828.07	1500.07
0	146865	1828.07	1400.07
0	146866	1828.07	1300.07
0	147048	1829.07	1600.07
0	147049	1829.07	1500.07
0	147050	1829.07	1400.07
0	147051	1829.07	1300.07
0	147233	1830.07	1600.07
0	147234	1830.07	1500.07
0	147235	1830.07	1400.07
0	147236	1830.07	1300.07
0	147418	1831.07	1600.07
0	147419	1831.07	1500.07
0	147420	1831.07	1400.07
0	147421	1831.07	1300.07
0	147603	1832.07	1600.07
0	147604	1832.07	1500.07
0	147605	1832.07	1400.07
0	147606	1832.07	1300.07
0	147788	1833.07	1600.07
0	147789	1833.07	1500.07
0	147790	1833.07	1400.07
0	147791	1833.07	1300.07
0	147973	1834.07	1600.07
0	147974	1834.07	1500.07
0	147975	1834.07	1400.07
0	147976	1834.07	1300.07
0	148158	1835.07	1600.07
0	148159	1835.07	1500.07
0	148160	1835.07	1400.07
0	148161	1835.07	1300.07
0	148343	1836.07	1600.07
0	148344	1836.07	1500.07
0	148345	1836.07	1400.07
0	148346	1836.07	1300.07
0	148528	1837.07	1600.07
0	148529	1837.07	1500.07
0	148530	1837.07	1400.07
0	148531	1837.07	1300.07
0	148713	1838.07	1600.07
0	148714	1838.07	1500.07
0	148715	1838.07	1400.07
0	148716	1838.07	1300.07
0	148898	1839.07	1600.07
0	148899	1839.07	1500.07
0	148900	1839.07	1400.07
0	148901	1839.07	1300.07
0	149083	1840.07	1600.07
0	149084	1840.07	1500.07
0	149085	1840.07	1400.07
0	149086	1840.07	1300.07
0	149268	1841.07	1600.07
0	149269	1841.07	1500.07
0	149270	1841.07	1400.07
0	149271	1841.07	1300.07
0	149453	1842.07	1600.07
0	149454	1842.07	1500.07
0	149455	1842.07	1400.07
0	149456	1842.07	1300.07
0	149638	1843.07	1600.07
0	149639	1843.07	1500.07
0	149640	1843.07	1400.07
0	149641	1843.07	1300.07
0	149823	1844.07	1600.07
0	149824	1844.07	1500.07
0	149825	1844.07	1400.07
0	149826	1844.07	1300.07
0	150008	1845.07	1600.07
0	150009	1845.07	1500.07
0	150010	1845.07	1400.07
0	150011	1845.07	1300.07
0	150193	1846.07	1600.07
0	150194	1846.07	1500.07
0	150195	1846.07	1400.07
0	150196	1846.07	1300.07
0	150378	1847.07	1600.07
0	150379	1847.07	1500.07
0	150380	1847.07	1400.07
0	150381	1847.07	1300.07
0	150563	1848.07	1600.07
0	150564	1848.07	1500.07
0	150565	1848.07	1400.07
0	150566	1848.07	1300.07
0	150748	1849.07	1600.07
0	150749	1849.07	1500.07
0	150750	1849.07	1400.07
0	150751	1849.07	1300.07
0	150933	1850.07	1600.07
0	150934	1850.07	1500.07
0	150935	1850.07	1400.07
0	150936	1850.07	1300.07
0	151118	1851.07	1600.07
0	151119	1851.07	1500.07
0	151120	1851.07	1400.07
0	151121	1851.07	1300.07
0	151303	1852.07	1600.07
0	151304	1852.07	1500.07
0	151305	1852.07	1400.07
0	151306	1852.07	1300.07
0	151488	1853.07	1600.07
0	151489	1853.07	1500.07
0	151490	1853.07	1400.07
0	151491	1853.07	1300.07
0	151673	1854.07	1600.07
0	151674	1854.07	1500.07
0	151675	1854.07	1400.07
0	151676	1854.07	1300.07
0	151858	1855.07	1600.07
0	151859	1855.07	1500.07
0	151860	1855.07	1400.07
0	151861	1855.07	1300.07
0	152043	1856.07	1600.07
0	152044	1856.07	1500.07
0	152045	1856.07	1400.07
0	152046	1856.07	1300.07
0	152228	1857.07	1600.07
0	152229	1857.07	1500.07
0	152230	1857.07	1400.07
0	152231	1857.07	1300.07
0	154162	1858.07	1858.07
0	154163	1858.07	1857.07
0	154164	1858.07	1856.07
0	154165	1858.07	1855.07
0	154166	1858.07	1854.07
0	154167	1858.07	1853.07
0	154168	1858.07	1852.07
0	154169	1858.07	1851.07
0	154170	1858.07	1850.07
0	154171	1858.07	1849.07
0	154172	1858.07	1848.07
0	154173	1858.07	1847.07
0	154174	1858.07	1846.07
0	154175	1858.07	1845.07
0	154176	1858.07	1844.07
0	154177	1858.07	1843.07
0	154178	1858.07	1842.07
0	154179	1858.07	1841.07
0	154180	1858.07	1840.07
0	154181	1858.07	1839.07
0	154182	1858.07	1838.07
0	154183	1858.07	1837.07
0	154184	1858.07	1836.07
0	154185	1858.07	1835.07
0	154186	1858.07	1834.07
0	154187	1858.07	1833.07
0	154188	1858.07	1832.07
0	154189	1858.07	1831.07
0	154190	1858.07	1830.07
0	154191	1858.07	1829.07
0	154192	1858.07	1828.07
0	154193	1858.07	1827.07
0	154194	1858.07	1826.07
0	154195	1858.07	1825.07
0	154196	1858.07	1824.07
0	154197	1858.07	1823.07
0	154198	1858.07	1822.07
0	154199	1858.07	1821.07
0	154200	1858.07	1820.07
0	154201	1858.07	1819.07
0	154202	1858.07	1818.07
0	154203	1858.07	1817.07
0	154204	1858.07	1816.07
0	154205	1858.07	1815.07
0	154206	1858.07	1814.07
0	154207	1858.07	1813.07
0	154208	1858.07	1812.07
0	154209	1858.07	1811.07
0	154210	1858.07	1810.07
0	154211	1858.07	1809.07
0	154212	1858.07	1808.07
0	154213	1858.07	1807.07
0	154214	1858.07	1806.07
0	154215	1858.07	1805.07
0	154216	1858.07	1804.07
0	154217	1858.07	1803.07
0	154218	1858.07	1802.07
0	154219	1858.07	1801.07
0	154220	1858.07	1800.07
0	154221	1858.07	1799.07
0	154222	1858.07	1798.07
0	154223	1858.07	1797.07
0	154224	1858.07	1796.07
0	154225	1858.07	1795.07
0	154226	1858.07	1794.07
0	154227	1858.07	1793.07
0	154228	1858.07	1792.07
0	154229	1858.07	1791.07
0	154230	1858.07	1790.07
0	154231	1858.07	1789.07
0	154232	1858.07	1788.07
0	154233	1858.07	1787.07
0	154234	1858.07	1786.07
0	154235	1858.07	1785.07
0	154236	1858.07	1784.07
0	154237	1858.07	1783.07
0	154238	1858.07	1782.07
0	154239	1858.07	1781.07
0	154240	1858.07	1780.07
0	154241	1858.07	1779.07
0	154242	1858.07	1778.07
0	154243	1858.07	1777.07
0	154244	1858.07	1776.07
0	154245	1858.07	1775.07
0	154246	1858.07	1774.07
0	154247	1858.07	1773.07
0	154248	1858.07	1772.07
0	154249	1858.07	1771.07
0	154250	1858.07	1770.07
0	154251	1858.07	1769.07
0	154252	1858.07	1768.07
0	154253	1858.07	1767.07
0	154254	1858.07	1766.07
0	154255	1858.07	1765.07
0	154256	1858.07	1764.07
0	154257	1858.07	1763.07
0	154258	1858.07	1762.07
0	154259	1858.07	1761.07
0	154260	1858.07	1760.07
0	154261	1858.07	1759.07
0	154262	1858.07	1758.07
0	154263	1858.07	1757.07
0	154264	1858.07	1756.07
0	154265	1858.07	1755.07
0	154266	1858.07	1754.07
0	154267	1858.07	1753.07
0	154268	1858.07	1752.07
0	154269	1858.07	1751.07
0	154270	1858.07	1750.07
0	154271	1858.07	1749.07
0	154272	1858.07	1748.07
0	154273	1858.07	1747.07
0	154274	1858.07	1746.07
0	154275	1858.07	1745.07
0	154276	1858.07	1744.07
0	154277	1858.07	1743.07
0	154278	1858.07	1742.07
0	154279	1858.07	1741.07
0	154280	1858.07	1740.07
0	154281	1858.07	1739.07
0	154282	1858.07	1738.07
0	154283	1858.07	1737.07
0	154284	1858.07	1736.07
0	154285	1858.07	1735.07
0	154286	1858.07	1734.07
0	154287	1858.07	1733.07
0	154288	1858.07	1732.07
0	154289	1858.07	1731.07
0	154290	1858.07	1730.07
0	154291	1858.07	1729.07
0	154292	1858.07	1728.07
0	154293	1858.07	1727.07
0	154294	1858.07	1726.07
0	154295	1858.07	1725.07
0	154296	1858.07	1724.07
0	154297	1858.07	1723.07
0	154298	1858.07	1722.07
0	154299	1858.07	1721.07
0	154300	1858.07	1720.07
0	154301	1858.07	1719.07
0	154302	1858.07	1718.07
0	154303	1858.07	1717.07
0	154304	1858.07	1716.07
0	154305	1858.07	1715.07
0	154306	1858.07	1714.07
0	154307	1858.07	1713.07
0	154308	1858.07	1712.07
0	154309	1858.07	1711.07
0	154310	1858.07	1710.07
0	154311	1858.07	1709.07
0	154312	1858.07	1708.07
0	154313	1858.07	1707.07
0	154314	1858.07	1706.07
0	154315	1858.07	1705.07
0	154316	1858.07	1704.07
0	154317	1858.07	1703.07
0	154318	1858.07	1702.07
0	154319	1858.07	1701.07
0	154320	1858.07	1700.07
0	154321	1858.07	1600.07
0	154322	1858.07	1500.07
0	154323	1858.07	1400.07
0	154324	1858.07	1300.07
0	156743	1859.07	1700.07
0	156744	1859.07	1600.07
0	156745	1859.07	1500.07
0	156746	1859.07	1400.07
0	156747	1859.07	1300.07
0	156954	1860.07	1700.07
0	156955	1860.07	1600.07
0	156956	1860.07	1500.07
0	156957	1860.07	1400.07
0	156958	1860.07	1300.07
0	157165	1861.07	1700.07
0	157166	1861.07	1600.07
0	157167	1861.07	1500.07
0	157168	1861.07	1400.07
0	157169	1861.07	1300.07
0	157376	1862.07	1700.07
0	157377	1862.07	1600.07
0	157378	1862.07	1500.07
0	157379	1862.07	1400.07
0	157380	1862.07	1300.07
0	157587	1863.07	1700.07
0	157588	1863.07	1600.07
0	157589	1863.07	1500.07
0	157590	1863.07	1400.07
0	157591	1863.07	1300.07
0	157798	1864.07	1700.07
0	157799	1864.07	1600.07
0	157800	1864.07	1500.07
0	157801	1864.07	1400.07
0	157802	1864.07	1300.07
0	158009	1865.07	1700.07
0	158010	1865.07	1600.07
0	158011	1865.07	1500.07
0	158012	1865.07	1400.07
0	158013	1865.07	1300.07
0	158220	1866.07	1700.07
0	158221	1866.07	1600.07
0	158222	1866.07	1500.07
0	158223	1866.07	1400.07
0	158224	1866.07	1300.07
0	158431	1867.07	1700.07
0	158432	1867.07	1600.07
0	158433	1867.07	1500.07
0	158434	1867.07	1400.07
0	158435	1867.07	1300.07
0	158642	1868.07	1700.07
0	158643	1868.07	1600.07
0	158644	1868.07	1500.07
0	158645	1868.07	1400.07
0	158646	1868.07	1300.07
0	158853	1869.07	1700.07
0	158854	1869.07	1600.07
0	158855	1869.07	1500.07
0	158856	1869.07	1400.07
0	158857	1869.07	1300.07
0	159064	1870.07	1700.07
0	159065	1870.07	1600.07
0	159066	1870.07	1500.07
0	159067	1870.07	1400.07
0	159068	1870.07	1300.07
0	159275	1871.07	1700.07
0	159276	1871.07	1600.07
0	159277	1871.07	1500.07
0	159278	1871.07	1400.07
0	159279	1871.07	1300.07
0	159486	1872.07	1700.07
0	159487	1872.07	1600.07
0	159488	1872.07	1500.07
0	159489	1872.07	1400.07
0	159490	1872.07	1300.07
0	159697	1873.07	1700.07
0	159698	1873.07	1600.07
0	159699	1873.07	1500.07
0	159700	1873.07	1400.07
0	159701	1873.07	1300.07
0	159908	1874.07	1700.07
0	159909	1874.07	1600.07
0	159910	1874.07	1500.07
0	159911	1874.07	1400.07
0	159912	1874.07	1300.07
0	160119	1875.07	1700.07
0	160120	1875.07	1600.07
0	160121	1875.07	1500.07
0	160122	1875.07	1400.07
0	160123	1875.07	1300.07
0	160330	1876.07	1700.07
0	160331	1876.07	1600.07
0	160332	1876.07	1500.07
0	160333	1876.07	1400.07
0	160334	1876.07	1300.07
0	160541	1877.07	1700.07
0	160542	1877.07	1600.07
0	160543	1877.07	1500.07
0	160544	1877.07	1400.07
0	160545	1877.07	1300.07
0	160752	1878.07	1700.07
0	160753	1878.07	1600.07
0	160754	1878.07	1500.07
0	160755	1878.07	1400.07
0	160756	1878.07	1300.07
0	160963	1879.07	1700.07
0	160964	1879.07	1600.07
0	160965	1879.07	1500.07
0	160966	1879.07	1400.07
0	160967	1879.07	1300.07
0	161174	1880.07	1700.07
0	161175	1880.07	1600.07
0	161176	1880.07	1500.07
0	161177	1880.07	1400.07
0	161178	1880.07	1300.07
0	161385	1881.07	1700.07
0	161386	1881.07	1600.07
0	161387	1881.07	1500.07
0	161388	1881.07	1400.07
0	161389	1881.07	1300.07
0	161596	1882.07	1700.07
0	161597	1882.07	1600.07
0	161598	1882.07	1500.07
0	161599	1882.07	1400.07
0	161600	1882.07	1300.07
0	161807	1883.07	1700.07
0	161808	1883.07	1600.07
0	161809	1883.07	1500.07
0	161810	1883.07	1400.07
0	161811	1883.07	1300.07
0	162018	1884.07	1700.07
0	162019	1884.07	1600.07
0	162020	1884.07	1500.07
0	162021	1884.07	1400.07
0	162022	1884.07	1300.07
0	162229	1885.07	1700.07
0	162230	1885.07	1600.07
0	162231	1885.07	1500.07
0	162232	1885.07	1400.07
0	162233	1885.07	1300.07
0	162440	1886.07	1700.07
0	162441	1886.07	1600.07
0	162442	1886.07	1500.07
0	162443	1886.07	1400.07
0	162444	1886.07	1300.07
0	162651	1887.07	1700.07
0	162652	1887.07	1600.07
0	162653	1887.07	1500.07
0	162654	1887.07	1400.07
0	162655	1887.07	1300.07
0	162862	1888.07	1700.07
0	162863	1888.07	1600.07
0	162864	1888.07	1500.07
0	162865	1888.07	1400.07
0	162866	1888.07	1300.07
0	163073	1889.07	1700.07
0	163074	1889.07	1600.07
0	163075	1889.07	1500.07
0	163076	1889.07	1400.07
0	163077	1889.07	1300.07
0	163284	1890.07	1700.07
0	163285	1890.07	1600.07
0	163286	1890.07	1500.07
0	163287	1890.07	1400.07
0	163288	1890.07	1300.07
0	163495	1891.07	1700.07
0	163496	1891.07	1600.07
0	163497	1891.07	1500.07
0	163498	1891.07	1400.07
0	163499	1891.07	1300.07
0	163706	1892.07	1700.07
0	163707	1892.07	1600.07
0	163708	1892.07	1500.07
0	163709	1892.07	1400.07
0	163710	1892.07	1300.07
0	163917	1893.07	1700.07
0	163918	1893.07	1600.07
0	163919	1893.07	1500.07
0	163920	1893.07	1400.07
0	163921	1893.07	1300.07
0	164128	1894.07	1700.07
0	164129	1894.07	1600.07
0	164130	1894.07	1500.07
0	164131	1894.07	1400.07
0	164132	1894.07	1300.07
0	164339	1895.07	1700.07
0	164340	1895.07	1600.07
0	164341	1895.07	1500.07
0	164342	1895.07	1400.07
0	164343	1895.07	1300.07
0	164550	1896.07	1700.07
0	164551	1896.07	1600.07
0	164552	1896.07	1500.07
0	164553	1896.07	1400.07
0	164554	1896.07	1300.07
0	164761	1897.07	1700.07
0	164762	1897.07	1600.07
0	164763	1897.07	1500.07
0	164764	1897.07	1400.07
0	164765	1897.07	1300.07
0	164972	1898.07	1700.07
0	164973	1898.07	1600.07
0	164974	1898.07	1500.07
0	164975	1898.07	1400.07
0	164976	1898.07	1300.07
0	165183	1899.07	1700.07
0	165184	1899.07	1600.07
0	165185	1899.07	1500.07
0	165186	1899.07	1400.07
0	165187	1899.07	1300.07
0	165394	1900.07	1700.07
0	165395	1900.07	1600.07
0	165396	1900.07	1500.07
0	165397	1900.07	1400.07
0	165398	1900.07	1300.07
0	165605	1901.07	1700.07
0	165606	1901.07	1600.07
0	165607	1901.07	1500.07
0	165608	1901.07	1400.07
0	165609	1901.07	1300.07
0	165816	1902.07	1700.07
0	165817	1902.07	1600.07
0	165818	1902.07	1500.07
0	165819	1902.07	1400.07
0	165820	1902.07	1300.07
0	166027	1903.07	1700.07
0	166028	1903.07	1600.07
0	166029	1903.07	1500.07
0	166030	1903.07	1400.07
0	166031	1903.07	1300.07
0	166238	1904.07	1700.07
0	166239	1904.07	1600.07
0	166240	1904.07	1500.07
0	166241	1904.07	1400.07
0	166242	1904.07	1300.07
0	166449	1905.07	1700.07
0	166450	1905.07	1600.07
0	166451	1905.07	1500.07
0	166452	1905.07	1400.07
0	166453	1905.07	1300.07
0	166660	1906.07	1700.07
0	166661	1906.07	1600.07
0	166662	1906.07	1500.07
0	166663	1906.07	1400.07
0	166664	1906.07	1300.07
0	166871	1907.07	1700.07
0	166872	1907.07	1600.07
0	166873	1907.07	1500.07
0	166874	1907.07	1400.07
0	166875	1907.07	1300.07
0	167082	1908.07	1700.07
0	167083	1908.07	1600.07
0	167084	1908.07	1500.07
0	167085	1908.07	1400.07
0	167086	1908.07	1300.07
0	167293	1909.07	1700.07
0	167294	1909.07	1600.07
0	167295	1909.07	1500.07
0	167296	1909.07	1400.07
0	167297	1909.07	1300.07
0	167504	1910.07	1700.07
0	167505	1910.07	1600.07
0	167506	1910.07	1500.07
0	167507	1910.07	1400.07
0	167508	1910.07	1300.07
0	167715	1911.07	1700.07
0	167716	1911.07	1600.07
0	167717	1911.07	1500.07
0	167718	1911.07	1400.07
0	167719	1911.07	1300.07
0	167926	1912.07	1700.07
0	167927	1912.07	1600.07
0	167928	1912.07	1500.07
0	167929	1912.07	1400.07
0	167930	1912.07	1300.07
0	168137	1913.07	1700.07
0	168138	1913.07	1600.07
0	168139	1913.07	1500.07
0	168140	1913.07	1400.07
0	168141	1913.07	1300.07
0	168348	1914.07	1700.07
0	168349	1914.07	1600.07
0	168350	1914.07	1500.07
0	168351	1914.07	1400.07
0	168352	1914.07	1300.07
0	168559	1915.07	1700.07
0	168560	1915.07	1600.07
0	168561	1915.07	1500.07
0	168562	1915.07	1400.07
0	168563	1915.07	1300.07
0	168770	1916.07	1700.07
0	168771	1916.07	1600.07
0	168772	1916.07	1500.07
0	168773	1916.07	1400.07
0	168774	1916.07	1300.07
0	168981	1917.07	1700.07
0	168982	1917.07	1600.07
0	168983	1917.07	1500.07
0	168984	1917.07	1400.07
0	168985	1917.07	1300.07
0	169192	1918.07	1700.07
0	169193	1918.07	1600.07
0	169194	1918.07	1500.07
0	169195	1918.07	1400.07
0	169196	1918.07	1300.07
0	169403	1919.07	1700.07
0	169404	1919.07	1600.07
0	169405	1919.07	1500.07
0	169406	1919.07	1400.07
0	169407	1919.07	1300.07
0	169614	1920.07	1700.07
0	169615	1920.07	1600.07
0	169616	1920.07	1500.07
0	169617	1920.07	1400.07
0	169618	1920.07	1300.07
0	169825	1921.07	1700.07
0	169826	1921.07	1600.07
0	169827	1921.07	1500.07
0	169828	1921.07	1400.07
0	169829	1921.07	1300.07
0	170036	1922.07	1700.07
0	170037	1922.07	1600.07
0	170038	1922.07	1500.07
0	170039	1922.07	1400.07
0	170040	1922.07	1300.07
0	170247	1923.07	1700.07
0	170248	1923.07	1600.07
0	170249	1923.07	1500.07
0	170250	1923.07	1400.07
0	170251	1923.07	1300.07
0	170458	1924.07	1700.07
0	170459	1924.07	1600.07
0	170460	1924.07	1500.07
0	170461	1924.07	1400.07
0	170462	1924.07	1300.07
0	170669	1925.07	1700.07
0	170670	1925.07	1600.07
0	170671	1925.07	1500.07
0	170672	1925.07	1400.07
0	170673	1925.07	1300.07
0	170880	1926.07	1700.07
0	170881	1926.07	1600.07
0	170882	1926.07	1500.07
0	170883	1926.07	1400.07
0	170884	1926.07	1300.07
0	171091	1927.07	1700.07
0	171092	1927.07	1600.07
0	171093	1927.07	1500.07
0	171094	1927.07	1400.07
0	171095	1927.07	1300.07
0	171302	1928.07	1700.07
0	171303	1928.07	1600.07
0	171304	1928.07	1500.07
0	171305	1928.07	1400.07
0	171306	1928.07	1300.07
0	171513	1929.07	1700.07
0	171514	1929.07	1600.07
0	171515	1929.07	1500.07
0	171516	1929.07	1400.07
0	171517	1929.07	1300.07
0	171724	1930.07	1700.07
0	171725	1930.07	1600.07
0	171726	1930.07	1500.07
0	171727	1930.07	1400.07
0	171728	1930.07	1300.07
0	171935	1931.07	1700.07
0	171936	1931.07	1600.07
0	171937	1931.07	1500.07
0	171938	1931.07	1400.07
0	171939	1931.07	1300.07
0	172146	1932.07	1700.07
0	172147	1932.07	1600.07
0	172148	1932.07	1500.07
0	172149	1932.07	1400.07
0	172150	1932.07	1300.07
0	172357	1933.07	1700.07
0	172358	1933.07	1600.07
0	172359	1933.07	1500.07
0	172360	1933.07	1400.07
0	172361	1933.07	1300.07
0	172568	1934.07	1700.07
0	172569	1934.07	1600.07
0	172570	1934.07	1500.07
0	172571	1934.07	1400.07
0	172572	1934.07	1300.07
0	172779	1935.07	1700.07
0	172780	1935.07	1600.07
0	172781	1935.07	1500.07
0	172782	1935.07	1400.07
0	172783	1935.07	1300.07
0	172990	1936.07	1700.07
0	172991	1936.07	1600.07
0	172992	1936.07	1500.07
0	172993	1936.07	1400.07
0	172994	1936.07	1300.07
0	173201	1937.07	1700.07
0	173202	1937.07	1600.07
0	173203	1937.07	1500.07
0	173204	1937.07	1400.07
0	173205	1937.07	1300.07
0	173412	1938.07	1700.07
0	173413	1938.07	1600.07
0	173414	1938.07	1500.07
0	173415	1938.07	1400.07
0	173416	1938.07	1300.07
0	173623	1939.07	1700.07
0	173624	1939.07	1600.07
0	173625	1939.07	1500.07
0	173626	1939.07	1400.07
0	173627	1939.07	1300.07
0	173834	1940.07	1700.07
0	173835	1940.07	1600.07
0	173836	1940.07	1500.07
0	173837	1940.07	1400.07
0	173838	1940.07	1300.07
0	174045	1941.07	1700.07
0	174046	1941.07	1600.07
0	174047	1941.07	1500.07
0	174048	1941.07	1400.07
0	174049	1941.07	1300.07
0	174256	1942.07	1700.07
0	174257	1942.07	1600.07
0	174258	1942.07	1500.07
0	174259	1942.07	1400.07
0	174260	1942.07	1300.07
0	174467	1943.07	1700.07
0	174468	1943.07	1600.07
0	174469	1943.07	1500.07
0	174470	1943.07	1400.07
0	174471	1943.07	1300.07
0	174678	1944.07	1700.07
0	174679	1944.07	1600.07
0	174680	1944.07	1500.07
0	174681	1944.07	1400.07
0	174682	1944.07	1300.07
0	174889	1945.07	1700.07
0	174890	1945.07	1600.07
0	174891	1945.07	1500.07
0	174892	1945.07	1400.07
0	174893	1945.07	1300.07
0	175100	1946.07	1700.07
0	175101	1946.07	1600.07
0	175102	1946.07	1500.07
0	175103	1946.07	1400.07
0	175104	1946.07	1300.07
0	175311	1947.07	1700.07
0	175312	1947.07	1600.07
0	175313	1947.07	1500.07
0	175314	1947.07	1400.07
0	175315	1947.07	1300.07
0	175522	1948.07	1700.07
0	175523	1948.07	1600.07
0	175524	1948.07	1500.07
0	175525	1948.07	1400.07
0	175526	1948.07	1300.07
0	175733	1949.07	1700.07
0	175734	1949.07	1600.07
0	175735	1949.07	1500.07
0	175736	1949.07	1400.07
0	175737	1949.07	1300.07
0	175944	1950.07	1700.07
0	175945	1950.07	1600.07
0	175946	1950.07	1500.07
0	175947	1950.07	1400.07
0	175948	1950.07	1300.07
0	176155	1951.07	1700.07
0	176156	1951.07	1600.07
0	176157	1951.07	1500.07
0	176158	1951.07	1400.07
0	176159	1951.07	1300.07
0	176366	1952.07	1700.07
0	176367	1952.07	1600.07
0	176368	1952.07	1500.07
0	176369	1952.07	1400.07
0	176370	1952.07	1300.07
0	176577	1953.07	1700.07
0	176578	1953.07	1600.07
0	176579	1953.07	1500.07
0	176580	1953.07	1400.07
0	176581	1953.07	1300.07
0	176734	1954.07	1700.07
0	176735	1954.07	1600.07
0	176736	1954.07	1500.07
0	176737	1954.07	1400.07
0	176738	1954.07	1300.07
0	176891	1955.07	1700.07
0	176892	1955.07	1600.07
0	176893	1955.07	1500.07
0	176894	1955.07	1400.07
0	176895	1955.07	1300.07
0	177048	1956.07	1700.07
0	177049	1956.07	1600.07
0	177050	1956.07	1500.07
0	177051	1956.07	1400.07
0	177052	1956.07	1300.07
0	177205	1957.07	1700.07
0	177206	1957.07	1600.07
0	177207	1957.07	1500.07
0	177208	1957.07	1400.07
0	177209	1957.07	1300.07
0	179111	1958.07	1958.07
0	179112	1958.07	1957.07
0	179113	1958.07	1956.07
0	179114	1958.07	1955.07
0	179115	1958.07	1954.07
0	179116	1958.07	1953.07
0	179117	1958.07	1952.07
0	179118	1958.07	1951.07
0	179119	1958.07	1950.07
0	179120	1958.07	1949.07
0	179121	1958.07	1948.07
0	179122	1958.07	1947.07
0	179123	1958.07	1946.07
0	179124	1958.07	1945.07
0	179125	1958.07	1944.07
0	179126	1958.07	1943.07
0	179127	1958.07	1942.07
0	179128	1958.07	1941.07
0	179129	1958.07	1940.07
0	179130	1958.07	1939.07
0	179131	1958.07	1938.07
0	179132	1958.07	1937.07
0	179133	1958.07	1936.07
0	179134	1958.07	1935.07
0	179135	1958.07	1934.07
0	179136	1958.07	1933.07
0	179137	1958.07	1932.07
0	179138	1958.07	1931.07
0	179139	1958.07	1930.07
0	179140	1958.07	1929.07
0	179141	1958.07	1928.07
0	179142	1958.07	1927.07
0	179143	1958.07	1926.07
0	179144	1958.07	1925.07
0	179145	1958.07	1924.07
0	179146	1958.07	1923.07
0	179147	1958.07	1922.07
0	179148	1958.07	1921.07
0	179149	1958.07	1920.07
0	179150	1958.07	1919.07
0	179151	1958.07	1918.07
0	179152	1958.07	1917.07
0	179153	1958.07	1916.07
0	179154	1958.07	1915.07
0	179155	1958.07	1914.07
0	179156	1958.07	1913.07
0	179157	1958.07	1912.07
0	179158	1958.07	1911.07
0	179159	1958.07	1910.07
0	179160	1958.07	1909.07
0	179161	1958.07	1908.07
0	179162	1958.07	1907.07
0	179163	1958.07	1906.07
0	179164	1958.07	1905.07
0	179165	1958.07	1904.07
0	179166	1958.07	1903.07
0	179167	1958.07	1902.07
0	179168	1958.07	1901.07
0	179169	1958.07	1900.07
0	179170	1958.07	1899.07
0	179171	1958.07	1898.07
0	179172	1958.07	1897.07
0	179173	1958.07	1896.07
0	179174	1958.07	1895.07
0	179175	1958.07	1894.07
0	179176	1958.07	1893.07
0	179177	1958.07	1892.07
0	179178	1958.07	1891.07
0	179179	1958.07	1890.07
0	179180	1958.07	1889.07
0	179181	1958.07	1888.07
0	179182	1958.07	1887.07
0	179183	1958.07	1886.07
0	179184	1958.07	1885.07
0	179185	1958.07	1884.07
0	179186	1958.07	1883.07
0	179187	1958.07	1882.07
0	179188	1958.07	1881.07
0	179189	1958.07	1880.07
0	179190	1958.07	1879.07
0	179191	1958.07	1878.07
0	179192	1958.07	1877.07
0	179193	1958.07	1876.07
0	179194	1958.07	1875.07
0	179195	1958.07	1874.07
0	179196	1958.07	1873.07
0	179197	1958.07	1872.07
0	179198	1958.07	1871.07
0	179199	1958.07	1870.07
0	179200	1958.07	1869.07
0	179201	1958.07	1868.07
0	179202	1958.07	1867.07
0	179203	1958.07	1866.07
0	179204	1958.07	1865.07
0	179205	1958.07	1864.07
0	179206	1958.07	1863.07
0	179207	1958.07	1862.07
0	179208	1958.07	1861.07
0	179209	1958.07	1860.07
0	179210	1958.07	1859.07
0	179211	1958.07	1858.07
0	179212	1958.07	1857.07
0	179213	1958.07	1856.07
0	179214	1958.07	1855.07
0	179215	1958.07	1854.07
0	179216	1958.07	1853.07
0	179217	1958.07	1852.07
0	179218	1958.07	1851.07
0	179219	1958.07	1850.07
0	179220	1958.07	1849.07
0	179221	1958.07	1848.07
0	179222	1958.07	1847.07
0	179223	1958.07	1846.07
0	179224	1958.07	1845.07
0	179225	1958.07	1844.07
0	179226	1958.07	1843.07
0	179227	1958.07	1842.07
0	179228	1958.07	1841.07
0	179229	1958.07	1840.07
0	179230	1958.07	1839.07
0	179231	1958.07	1838.07
0	179232	1958.07	1837.07
0	179233	1958.07	1836.07
0	179234	1958.07	1835.07
0	179235	1958.07	1834.07
0	179236	1958.07	1833.07
0	179237	1958.07	1832.07
0	179238	1958.07	1831.07
0	179239	1958.07	1830.07
0	179240	1958.07	1829.07
0	179241	1958.07	1828.07
0	179242	1958.07	1827.07
0	179243	1958.07	1826.07
0	179244	1958.07	1825.07
0	179245	1958.07	1824.07
0	179246	1958.07	1823.07
0	179247	1958.07	1822.07
0	179248	1958.07	1821.07
0	179249	1958.07	1820.07
0	179250	1958.07	1819.07
0	179251	1958.07	1818.07
0	179252	1958.07	1817.07
0	179253	1958.07	1816.07
0	179254	1958.07	1815.07
0	179255	1958.07	1814.07
0	179256	1958.07	1813.07
0	179257	1958.07	1812.07
0	179258	1958.07	1811.07
0	179259	1958.07	1810.07
0	179260	1958.07	1809.07
0	179261	1958.07	1808.07
0	179262	1958.07	1807.07
0	179263	1958.07	1806.07
0	179264	1958.07	1805.07
0	179265	1958.07	1804.07
0	179266	1958.07	1803.07
0	179267	1958.07	1802.07
0	179268	1958.07	1801.07
0	179269	1958.07	1800.07
0	179270	1958.07	1700.07
0	179271	1958.07	1600.07
0	179272	1958.07	1500.07
0	179273	1958.07	1400.07
0	179274	1958.07	1300.07
0	181187	1959.07	1800.07
0	181188	1959.07	1700.07
0	181189	1959.07	1600.07
0	181190	1959.07	1500.07
0	181191	1959.07	1400.07
0	181192	1959.07	1300.07
0	181367	1960.07	1800.07
0	181368	1960.07	1700.07
0	181369	1960.07	1600.07
0	181370	1960.07	1500.07
0	181371	1960.07	1400.07
0	181372	1960.07	1300.07
0	181547	1961.07	1800.07
0	181548	1961.07	1700.07
0	181549	1961.07	1600.07
0	181550	1961.07	1500.07
0	181551	1961.07	1400.07
0	181552	1961.07	1300.07
0	181727	1962.07	1800.07
0	181728	1962.07	1700.07
0	181729	1962.07	1600.07
0	181730	1962.07	1500.07
0	181731	1962.07	1400.07
0	181732	1962.07	1300.07
0	181907	1963.07	1800.07
0	181908	1963.07	1700.07
0	181909	1963.07	1600.07
0	181910	1963.07	1500.07
0	181911	1963.07	1400.07
0	181912	1963.07	1300.07
0	182087	1964.07	1800.07
0	182088	1964.07	1700.07
0	182089	1964.07	1600.07
0	182090	1964.07	1500.07
0	182091	1964.07	1400.07
0	182092	1964.07	1300.07
0	182267	1965.07	1800.07
0	182268	1965.07	1700.07
0	182269	1965.07	1600.07
0	182270	1965.07	1500.07
0	182271	1965.07	1400.07
0	182272	1965.07	1300.07
0	182447	1966.07	1800.07
0	182448	1966.07	1700.07
0	182449	1966.07	1600.07
0	182450	1966.07	1500.07
0	182451	1966.07	1400.07
0	182452	1966.07	1300.07
0	182627	1967.07	1800.07
0	182628	1967.07	1700.07
0	182629	1967.07	1600.07
0	182630	1967.07	1500.07
0	182631	1967.07	1400.07
0	182632	1967.07	1300.07
0	182807	1968.07	1800.07
0	182808	1968.07	1700.07
0	182809	1968.07	1600.07
0	182810	1968.07	1500.07
0	182811	1968.07	1400.07
0	182812	1968.07	1300.07
0	182987	1969.07	1800.07
0	182988	1969.07	1700.07
0	182989	1969.07	1600.07
0	182990	1969.07	1500.07
0	182991	1969.07	1400.07
0	182992	1969.07	1300.07
0	183167	1970.07	1800.07
0	183168	1970.07	1700.07
0	183169	1970.07	1600.07
0	183170	1970.07	1500.07
0	183171	1970.07	1400.07
0	183172	1970.07	1300.07
0	183347	1971.07	1800.07
0	183348	1971.07	1700.07
0	183349	1971.07	1600.07
0	183350	1971.07	1500.07
0	183351	1971.07	1400.07
0	183352	1971.07	1300.07
0	183527	1972.07	1800.07
0	183528	1972.07	1700.07
0	183529	1972.07	1600.07
0	183530	1972.07	1500.07
0	183531	1972.07	1400.07
0	183532	1972.07	1300.07
0	183707	1973.07	1800.07
0	183708	1973.07	1700.07
0	183709	1973.07	1600.07
0	183710	1973.07	1500.07
0	183711	1973.07	1400.07
0	183712	1973.07	1300.07
0	183887	1974.07	1800.07
0	183888	1974.07	1700.07
0	183889	1974.07	1600.07
0	183890	1974.07	1500.07
0	183891	1974.07	1400.07
0	183892	1974.07	1300.07
0	184067	1975.07	1800.07
0	184068	1975.07	1700.07
0	184069	1975.07	1600.07
0	184070	1975.07	1500.07
0	184071	1975.07	1400.07
0	184072	1975.07	1300.07
0	184247	1976.07	1800.07
0	184248	1976.07	1700.07
0	184249	1976.07	1600.07
0	184250	1976.07	1500.07
0	184251	1976.07	1400.07
0	184252	1976.07	1300.07
0	184427	1977.07	1800.07
0	184428	1977.07	1700.07
0	184429	1977.07	1600.07
0	184430	1977.07	1500.07
0	184431	1977.07	1400.07
0	184432	1977.07	1300.07
0	184607	1978.07	1800.07
0	184608	1978.07	1700.07
0	184609	1978.07	1600.07
0	184610	1978.07	1500.07
0	184611	1978.07	1400.07
0	184612	1978.07	1300.07
0	184787	1979.07	1800.07
0	184788	1979.07	1700.07
0	184789	1979.07	1600.07
0	184790	1979.07	1500.07
0	184791	1979.07	1400.07
0	184792	1979.07	1300.07
0	184967	1980.07	1800.07
0	184968	1980.07	1700.07
0	184969	1980.07	1600.07
0	184970	1980.07	1500.07
0	184971	1980.07	1400.07
0	184972	1980.07	1300.07
0	185147	1981.07	1800.07
0	185148	1981.07	1700.07
0	185149	1981.07	1600.07
0	185150	1981.07	1500.07
0	185151	1981.07	1400.07
0	185152	1981.07	1300.07
0	185327	1982.07	1800.07
0	185328	1982.07	1700.07
0	185329	1982.07	1600.07
0	185330	1982.07	1500.07
0	185331	1982.07	1400.07
0	185332	1982.07	1300.07
0	185507	1983.07	1800.07
0	185508	1983.07	1700.07
0	185509	1983.07	1600.07
0	185510	1983.07	1500.07
0	185511	1983.07	1400.07
0	185512	1983.07	1300.07
0	185687	1984.07	1800.07
0	185688	1984.07	1700.07
0	185689	1984.07	1600.07
0	185690	1984.07	1500.07
0	185691	1984.07	1400.07
0	185692	1984.07	1300.07
0	185867	1985.07	1800.07
0	185868	1985.07	1700.07
0	185869	1985.07	1600.07
0	185870	1985.07	1500.07
0	185871	1985.07	1400.07
0	185872	1985.07	1300.07
0	186047	1986.07	1800.07
0	186048	1986.07	1700.07
0	186049	1986.07	1600.07
0	186050	1986.07	1500.07
0	186051	1986.07	1400.07
0	186052	1986.07	1300.07
0	186227	1987.07	1800.07
0	186228	1987.07	1700.07
0	186229	1987.07	1600.07
0	186230	1987.07	1500.07
0	186231	1987.07	1400.07
0	186232	1987.07	1300.07
0	186407	1988.07	1800.07
0	186408	1988.07	1700.07
0	186409	1988.07	1600.07
0	186410	1988.07	1500.07
0	186411	1988.07	1400.07
0	186412	1988.07	1300.07
0	186587	1989.07	1800.07
0	186588	1989.07	1700.07
0	186589	1989.07	1600.07
0	186590	1989.07	1500.07
0	186591	1989.07	1400.07
0	186592	1989.07	1300.07
0	186767	1990.07	1800.07
0	186768	1990.07	1700.07
0	186769	1990.07	1600.07
0	186770	1990.07	1500.07
0	186771	1990.07	1400.07
0	186772	1990.07	1300.07
0	186947	1991.07	1800.07
0	186948	1991.07	1700.07
0	186949	1991.07	1600.07
0	186950	1991.07	1500.07
0	186951	1991.07	1400.07
0	186952	1991.07	1300.07
0	187127	1992.07	1800.07
0	187128	1992.07	1700.07
0	187129	1992.07	1600.07
0	187130	1992.07	1500.07
0	187131	1992.07	1400.07
0	187132	1992.07	1300.07
0	187307	1993.07	1800.07
0	187308	1993.07	1700.07
0	187309	1993.07	1600.07
0	187310	1993.07	1500.07
0	187311	1993.07	1400.07
0	187312	1993.07	1300.07
0	187487	1994.07	1800.07
0	187488	1994.07	1700.07
0	187489	1994.07	1600.07
0	187490	1994.07	1500.07
0	187491	1994.07	1400.07
0	187492	1994.07	1300.07
0	187667	1995.07	1800.07
0	187668	1995.07	1700.07
0	187669	1995.07	1600.07
0	187670	1995.07	1500.07
0	187671	1995.07	1400.07
0	187672	1995.07	1300.07
0	187847	1996.07	1800.07
0	187848	1996.07	1700.07
0	187849	1996.07	1600.07
0	187850	1996.07	1500.07
0	187851	1996.07	1400.07
0	187852	1996.07	1300.07
0	188027	1997.07	1800.07
0	188028	1997.07	1700.07
0	188029	1997.07	1600.07
0	188030	1997.07	1500.07
0	188031	1997.07	1400.07
0	188032	1997.07	1300.07
0	188207	1998.07	1800.07
0	188208	1998.07	1700.07
0	188209	1998.07	1600.07
0	188210	1998.07	1500.07
0	188211	1998.07	1400.07
0	188212	1998.07	1300.07
0	188387	1999.07	1800.07
0	188388	1999.07	1700.07
0	188389	1999.07	1600.07
0	188390	1999.07	1500.07
0	188391	1999.07	1400.07
0	188392	1999.07	1300.07
0	188560	2000.07	1800.07
0	188561	2000.07	1700.07
0	188562	2000.07	1600.07
0	188563	2000.07	1500.07
0	188564	2000.07	1400.07
0	188565	2000.07	1300.07
0	188718	2001.07	1800.07
0	188719	2001.07	1700.07
0	188720	2001.07	1600.07
0	188721	2001.07	1500.07
0	188722	2001.07	1400.07
0	188723	2001.07	1300.07
0	188876	2002.07	1800.07
0	188877	2002.07	1700.07
0	188878	2002.07	1600.07
0	188879	2002.07	1500.07
0	188880	2002.07	1400.07
0	188881	2002.07	1300.07
0	189034	2003.07	1800.07
0	189035	2003.07	1700.07
0	189036	2003.07	1600.07
0	189037	2003.07	1500.07
0	189038	2003.07	1400.07
0	189039	2003.07	1300.07
0	189192	2004.07	1800.07
0	189193	2004.07	1700.07
0	189194	2004.07	1600.07
0	189195	2004.07	1500.07
0	189196	2004.07	1400.07
0	189197	2004.07	1300.07
0	189350	2005.07	1800.07
0	189351	2005.07	1700.07
0	189352	2005.07	1600.07
0	189353	2005.07	1500.07
0	189354	2005.07	1400.07
0	189355	2005.07	1300.07
0	189508	2006.07	1800.07
0	189509	2006.07	1700.07
0	189510	2006.07	1600.07
0	189511	2006.07	1500.07
0	189512	2006.07	1400.07
0	189513	2006.07	1300.07
0	189666	2007.07	1800.07
0	189667	2007.07	1700.07
0	189668	2007.07	1600.07
0	189669	2007.07	1500.07
0	189670	2007.07	1400.07
0	189671	2007.07	1300.07
0	189824	2008.07	1800.07
0	189825	2008.07	1700.07
0	189826	2008.07	1600.07
0	189827	2008.07	1500.07
0	189828	2008.07	1400.07
0	189829	2008.07	1300.07
0	189982	2009.07	1800.07
0	189983	2009.07	1700.07
0	189984	2009.07	1600.07
0	189985	2009.07	1500.07
0	189986	2009.07	1400.07
0	189987	2009.07	1300.07
0	190140	2010.07	1800.07
0	190141	2010.07	1700.07
0	190142	2010.07	1600.07
0	190143	2010.07	1500.07
0	190144	2010.07	1400.07
0	190145	2010.07	1300.07
0	190298	2011.07	1800.07
0	190299	2011.07	1700.07
0	190300	2011.07	1600.07
0	190301	2011.07	1500.07
0	190302	2011.07	1400.07
0	190303	2011.07	1300.07
0	190456	2012.07	1800.07
0	190457	2012.07	1700.07
0	190458	2012.07	1600.07
0	190459	2012.07	1500.07
0	190460	2012.07	1400.07
0	190461	2012.07	1300.07
0	190614	2013.07	1800.07
0	190615	2013.07	1700.07
0	190616	2013.07	1600.07
0	190617	2013.07	1500.07
0	190618	2013.07	1400.07
0	190619	2013.07	1300.07
0	190772	2014.07	1800.07
0	190773	2014.07	1700.07
0	190774	2014.07	1600.07
0	190775	2014.07	1500.07
0	190776	2014.07	1400.07
0	190777	2014.07	1300.07
0	190930	2015.07	1800.07
0	190931	2015.07	1700.07
0	190932	2015.07	1600.07
0	190933	2015.07	1500.07
0	190934	2015.07	1400.07
0	190935	2015.07	1300.07
0	191088	2016.07	1800.07
0	191089	2016.07	1700.07
0	191090	2016.07	1600.07
0	191091	2016.07	1500.07
0	191092	2016.07	1400.07
0	191093	2016.07	1300.07
0	191246	2017.07	1800.07
0	191247	2017.07	1700.07
0	191248	2017.07	1600.07
0	191249	2017.07	1500.07
0	191250	2017.07	1400.07
0	191251	2017.07	1300.07
0	191404	2018.07	1800.07
0	191405	2018.07	1700.07
0	191406	2018.07	1600.07
0	191407	2018.07	1500.07
0	191408	2018.07	1400.07
0	191409	2018.07	1300.07
0	191562	2019.07	1800.07
0	191563	2019.07	1700.07
0	191564	2019.07	1600.07
0	191565	2019.07	1500.07
0	191566	2019.07	1400.07
0	191567	2019.07	1300.07
0	191720	2020.07	1800.07
0	191721	2020.07	1700.07
0	191722	2020.07	1600.07
0	191723	2020.07	1500.07
0	191724	2020.07	1400.07
0	191725	2020.07	1300.07
0	191878	2021.07	1800.07
0	191879	2021.07	1700.07
0	191880	2021.07	1600.07
0	191881	2021.07	1500.07
0	191882	2021.07	1400.07
0	191883	2021.07	1300.07
0	192036	2022.07	1800.07
0	192037	2022.07	1700.07
0	192038	2022.07	1600.07
0	192039	2022.07	1500.07
0	192040	2022.07	1400.07
0	192041	2022.07	1300.07
0	192194	2023.07	1800.07
0	192195	2023.07	1700.07
0	192196	2023.07	1600.07
0	192197	2023.07	1500.07
0	192198	2023.07	1400.07
0	192199	2023.07	1300.07
0	192352	2024.07	1800.07
0	192353	2024.07	1700.07
0	192354	2024.07	1600.07
0	192355	2024.07	1500.07
0	192356	2024.07	1400.07
0	192357	2024.07	1300.07
0	192510	2025.07	1800.07
0	192511	2025.07	1700.07
0	192512	2025.07	1600.07
0	192513	2025.07	1500.07
0	192514	2025.07	1400.07
0	192515	2025.07	1300.07
0	192668	2026.07	1800.07
0	192669	2026.07	1700.07
0	192670	2026.07	1600.07
0	192671	2026.07	1500.07
0	192672	2026.07	1400.07
0	192673	2026.07	1300.07
0	192826	2027.07	1800.07
0	192827	2027.07	1700.07
0	192828	2027.07	1600.07
0	192829	2027.07	1500.07
0	192830	2027.07	1400.07
0	192831	2027.07	1300.07
0	192984	2028.07	1800.07
0	192985	2028.07	1700.07
0	192986	2028.07	1600.07
0	192987	2028.07	1500.07
0	192988	2028.07	1400.07
0	192989	2028.07	1300.07
0	193142	2029.07	1800.07
0	193143	2029.07	1700.07
0	193144	2029.07	1600.07
0	193145	2029.07	1500.07
0	193146	2029.07	1400.07
0	193147	2029.07	1300.07
0	193300	2030.07	1800.07
0	193301	2030.07	1700.07
0	193302	2030.07	1600.07
0	193303	2030.07	1500.07
0	193304	2030.07	1400.07
0	193305	2030.07	1300.07
0	193458	2031.07	1800.07
0	193459	2031.07	1700.07
0	193460	2031.07	1600.07
0	193461	2031.07	1500.07
0	193462	2031.07	1400.07
0	193463	2031.07	1300.07
0	193616	2032.07	1800.07
0	193617	2032.07	1700.07
0	193618	2032.07	1600.07
0	193619	2032.07	1500.07
0	193620	2032.07	1400.07
0	193621	2032.07	1300.07
0	193774	2033.07	1800.07
0	193775	2033.07	1700.07
0	193776	2033.07	1600.07
0	193777	2033.07	1500.07
0	193778	2033.07	1400.07
0	193779	2033.07	1300.07
0	193932	2034.07	1800.07
0	193933	2034.07	1700.07
0	193934	2034.07	1600.07
0	193935	2034.07	1500.07
0	193936	2034.07	1400.07
0	193937	2034.07	1300.07
0	194090	2035.07	1800.07
0	194091	2035.07	1700.07
0	194092	2035.07	1600.07
0	194093	2035.07	1500.07
0	194094	2035.07	1400.07
0	194095	2035.07	1300.07
0	194248	2036.07	1800.07
0	194249	2036.07	1700.07
0	194250	2036.07	1600.07
0	194251	2036.07	1500.07
0	194252	2036.07	1400.07
0	194253	2036.07	1300.07
0	194406	2037.07	1800.07
0	194407	2037.07	1700.07
0	194408	2037.07	1600.07
0	194409	2037.07	1500.07
0	194410	2037.07	1400.07
0	194411	2037.07	1300.07
0	194564	2038.07	1800.07
0	194565	2038.07	1700.07
0	194566	2038.07	1600.07
0	194567	2038.07	1500.07
0	194568	2038.07	1400.07
0	194569	2038.07	1300.07
0	194722	2039.07	1800.07
0	194723	2039.07	1700.07
0	194724	2039.07	1600.07
0	194725	2039.07	1500.07
0	194726	2039.07	1400.07
0	194727	2039.07	1300.07
0	194880	2040.07	1800.07
0	194881	2040.07	1700.07
0	194882	2040.07	1600.07
0	194883	2040.07	1500.07
0	194884	2040.07	1400.07
0	194885	2040.07	1300.07
0	195038	2041.07	1800.07
0	195039	2041.07	1700.07
0	195040	2041.07	1600.07
0	195041	2041.07	1500.07
0	195042	2041.07	1400.07
0	195043	2041.07	1300.07
0	195196	2042.07	1800.07
0	195197	2042.07	1700.07
0	195198	2042.07	1600.07
0	195199	2042.07	1500.07
0	195200	2042.07	1400.07
0	195201	2042.07	1300.07
0	195354	2043.07	1800.07
0	195355	2043.07	1700.07
0	195356	2043.07	1600.07
0	195357	2043.07	1500.07
0	195358	2043.07	1400.07
0	195359	2043.07	1300.07
0	195512	2044.07	1800.07
0	195513	2044.07	1700.07
0	195514	2044.07	1600.07
0	195515	2044.07	1500.07
0	195516	2044.07	1400.07
0	195517	2044.07	1300.07
0	195670	2045.07	1800.07
0	195671	2045.07	1700.07
0	195672	2045.07	1600.07
0	195673	2045.07	1500.07
0	195674	2045.07	1400.07
0	195675	2045.07	1300.07
0	195828	2046.07	1800.07
0	195829	2046.07	1700.07
0	195830	2046.07	1600.07
0	195831	2046.07	1500.07
0	195832	2046.07	1400.07
0	195833	2046.07	1300.07
0	195986	2047.07	1800.07
0	195987	2047.07	1700.07
0	195988	2047.07	1600.07
0	195989	2047.07	1500.07
0	195990	2047.07	1400.07
0	195991	2047.07	1300.07
0	196144	2048.07	1800.07
0	196145	2048.07	1700.07
0	196146	2048.07	1600.07
0	196147	2048.07	1500.07
0	196148	2048.07	1400.07
0	196149	2048.07	1300.07
0	196302	2049.07	1800.07
0	196303	2049.07	1700.07
0	196304	2049.07	1600.07
0	196305	2049.07	1500.07
0	196306	2049.07	1400.07
0	196307	2049.07	1300.07
0	196460	2050.07	1800.07
0	196461	2050.07	1700.07
0	196462	2050.07	1600.07
0	196463	2050.07	1500.07
0	196464	2050.07	1400.07
0	196465	2050.07	1300.07
0	196618	2051.07	1800.07
0	196619	2051.07	1700.07
0	196620	2051.07	1600.07
0	196621	2051.07	1500.07
0	196622	2051.07	1400.07
0	196623	2051.07	1300.07
0	196776	2052.07	1800.07
0	196777	2052.07	1700.07
0	196778	2052.07	1600.07
0	196779	2052.07	1500.07
0	196780	2052.07	1400.07
0	196781	2052.07	1300.07
0	196934	2053.07	1800.07
0	196935	2053.07	1700.07
0	196936	2053.07	1600.07
0	196937	2053.07	1500.07
0	196938	2053.07	1400.07
0	196939	2053.07	1300.07
0	197072	2054.07	1800.07
0	197073	2054.07	1700.07
0	197074	2054.07	1600.07
0	197075	2054.07	1500.07
0	197076	2054.07	1400.07
0	197077	2054.07	1300.07
0	197210	2055.07	1800.07
0	197211	2055.07	1700.07
0	197212	2055.07	1600.07
0	197213	2055.07	1500.07
0	197214	2055.07	1400.07
0	197215	2055.07	1300.07
0	197348	2056.07	1800.07
0	197349	2056.07	1700.07
0	197350	2056.07	1600.07
0	197351	2056.07	1500.07
0	197352	2056.07	1400.07
0	197353	2056.07	1300.07
0	197486	2057.07	1800.07
0	197487	2057.07	1700.07
0	197488	2057.07	1600.07
0	197489	2057.07	1500.07
0	197490	2057.07	1400.07
0	197491	2057.07	1300.07
0	199373	2058.07	2058.07
0	199374	2058.07	2057.07
0	199375	2058.07	2056.07
0	199376	2058.07	2055.07
0	199377	2058.07	2054.07
0	199378	2058.07	2053.07
0	199379	2058.07	2052.07
0	199380	2058.07	2051.07
0	199381	2058.07	2050.07
0	199382	2058.07	2049.07
0	199383	2058.07	2048.07
0	199384	2058.07	2047.07
0	199385	2058.07	2046.07
0	199386	2058.07	2045.07
0	199387	2058.07	2044.07
0	199388	2058.07	2043.07
0	199389	2058.07	2042.07
0	199390	2058.07	2041.07
0	199391	2058.07	2040.07
0	199392	2058.07	2039.07
0	199393	2058.07	2038.07
0	199394	2058.07	2037.07
0	199395	2058.07	2036.07
0	199396	2058.07	2035.07
0	199397	2058.07	2034.07
0	199398	2058.07	2033.07
0	199399	2058.07	2032.07
0	199400	2058.07	2031.07
0	199401	2058.07	2030.07
0	199402	2058.07	2029.07
0	199403	2058.07	2028.07
0	199404	2058.07	2027.07
0	199405	2058.07	2026.07
0	199406	2058.07	2025.07
0	199407	2058.07	2024.07
0	199408	2058.07	2023.07
0	199409	2058.07	2022.07
0	199410	2058.07	2021.07
0	199411	2058.07	2020.07
0	199412	2058.07	2019.07
0	199413	2058.07	2018.07
0	199414	2058.07	2017.07
0	199415	2058.07	2016.07
0	199416	2058.07	2015.07
0	199417	2058.07	2014.07
0	199418	2058.07	2013.07
0	199419	2058.07	2012.07
0	199420	2058.07	2011.07
0	199421	2058.07	2010.07
0	199422	2058.07	2009.07
0	199423	2058.07	2008.07
0	199424	2058.07	2007.07
0	199425	2058.07	2006.07
0	199426	2058.07	2005.07
0	199427	2058.07	2004.07
0	199428	2058.07	2003.07
0	199429	2058.07	2002.07
0	199430	2058.07	2001.07
0	199431	2058.07	2000.07
0	199432	2058.07	1999.07
0	199433	2058.07	1998.07
0	199434	2058.07	1997.07
0	199435	2058.07	1996.07
0	199436	2058.07	1995.07
0	199437	2058.07	1994.07
0	199438	2058.07	1993.07
[...]
0	2514041	34675.03	33862.03
0	2514042	34675.03	33762.03
0	2514043	34675.03	33662.03
0	2514044	34675.03	33562.03
0	2514045	34675.03	33462.03
0	2514046	34675.03	33362.03
0	2514047	34675.03	33262.03
0	2514048	34675.03	33162.03
0	2514049	34675.03	33062.03
0	2514050	34675.03	32962.03
0	2514051	34675.03	32862.03
0	2514052	34675.03	32762.03
0	2514053	34675.03	34461.03
0	2514054	34675.03	34361.03
0	2514055	34675.03	34261.03
0	2514056	34675.03	34161.03
0	2514057	34675.03	34061.03
0	2514058	34675.03	33961.03
0	2514059	34675.03	33861.03
0	2514060	34675.03	33761.03
0	2514061	34675.03	33661.03
0	2514062	34675.03	33561.03
0	2514063	34675.03	33461.03
0	2514064	34675.03	33361.03
0	2514065	34675.03	33261.03
0	2514066	34675.03	33161.03
0	2514067	34675.03	33061.03
0	2514068	34675.03	32961.03
0	2514069	34675.03	32861.03
0	2514070	34675.03	32761.03
0	2514071	34675.03	34460.03
0	2514072	34675.03	34360.03
0	2514073	34675.03	34260.03
0	2514074	34675.03	34160.03
0	2514075	34675.03	34060.03
0	2514076	34675.03	33960.03
0	2514077	34675.03	33860.03
0	2514078	34675.03	33760.03
0	2514079	34675.03	33660.03
0	2514080	34675.03	33560.03
0	2514081	34675.03	33460.03
0	2514082	34675.03	33360.03
0	2514083	34675.03	33260.03
0	2514084	34675.03	33160.03
0	2514085	34675.03	33060.03
0	2514086	34675.03	32960.03
0	2514087	34675.03	32860.03
0	2514088	34675.03	32760.03
0	2514089	34675.03	34459.03
0	2514090	34675.03	34359.03
0	2514091	34675.03	34259.03
0	2514092	34675.03	34159.03
0	2514093	34675.03	34059.03
0	2514094	34675.03	33959.03
0	2514095	34675.03	33859.03
0	2514096	34675.03	33759.03
0	2514097	34675.03	33659.03
0	2514098	34675.03	33559.03
0	2514099	34675.03	33459.03
0	2514100	34675.03	33359.03
0	2514101	34675.03	33259.03
0	2514102	34675.03	33159.03
0	2514103	34675.03	33059.03
0	2514104	34675.03	32959.03
0	2514105	34675.03	32859.03
0	2514106	34675.03	32759.03
0	2514107	34675.03	34458.03
0	2514108	34675.03	34358.03
0	2514109	34675.03	34258.03
0	2514110	34675.03	34158.03
0	2514111	34675.03	34058.03
0	2514112	34675.03	33958.03
0	2514113	34675.03	33858.03
0	2514114	34675.03	33758.03
0	2514115	34675.03	33658.03
0	2514116	34675.03	33558.03
0	2514117	34675.03	33458.03
0	2514118	34675.03	33358.03
0	2514119	34675.03	33258.03
0	2514120	34675.03	33158.03
0	2514121	34675.03	33058.03
0	2514122	34675.03	32958.03
0	2514123	34675.03	32858.03
0	2514124	34675.03	32758.03
0	2514125	34675.03	34457.03
0	2514126	34675.03	34357.03
0	2514127	34675.03	34257.03
0	2514128	34675.03	34157.03
0	2514129	34675.03	34057.03
0	2514130	34675.03	33957.03
0	2514131	34675.03	33857.03
0	2514132	34675.03	33757.03
0	2514133	34675.03	33657.03
0	2514134	34675.03	33557.03
0	2514135	34675.03	33457.03
0	2514136	34675.03	33357.03
0	2514137	34675.03	33257.03
0	2514138	34675.03	33157.03
0	2514139	34675.03	33057.03
0	2514140	34675.03	32957.03
0	2514141	34675.03	32857.03
0	2514142	34675.03	32757.03
0	2514143	34675.03	34456.03
0	2514144	34675.03	34356.03
0	2514145	34675.03	34256.03
0	2514146	34675.03	34156.03
0	2514147	34675.03	34056.03
0	2514148	34675.03	33956.03
0	2514149	34675.03	33856.03
0	2514150	34675.03	33756.03
0	2514151	34675.03	33656.03
0	2514152	34675.03	33556.03
0	2514153	34675.03	33456.03
0	2514154	34675.03	33356.03
0	2514155	34675.03	33256.03
0	2514156	34675.03	33156.03
0	2514157	34675.03	33056.03
0	2514158	34675.03	32956.03
0	2514159	34675.03	32856.03
0	2514160	34675.03	32756.03
0	2514161	34675.03	34455.03
0	2514162	34675.03	34355.03
0	2514163	34675.03	34255.03
0	2514164	34675.03	34155.03
0	2514165	34675.03	34055.03
0	2514166	34675.03	33955.03
0	2514167	34675.03	33855.03
0	2514168	34675.03	33755.03
0	2514169	34675.03	33655.03
0	2514170	34675.03	33555.03
0	2514171	34675.03	33455.03
0	2514172	34675.03	33355.03
0	2514173	34675.03	33255.03
0	2514174	34675.03	33155.03
0	2514175	34675.03	33055.03
0	2514176	34675.03	32955.03
0	2514177	34675.03	32855.03
0	2514178	34675.03	32755.03
0	2514179	34675.03	34454.03
0	2514180	34675.03	34354.03
0	2514181	34675.03	34254.03
0	2514182	34675.03	34154.03
0	2514183	34675.03	34054.03
0	2514184	34675.03	33954.03
0	2514185	34675.03	33854.03
0	2514186	34675.03	33754.03
0	2514187	34675.03	33654.03
0	2514188	34675.03	33554.03
0	2514189	34675.03	33454.03
0	2514190	34675.03	33354.03
0	2514191	34675.03	33254.03
0	2514192	34675.03	33154.03
0	2514193	34675.03	33054.03
0	2514194	34675.03	32954.03
0	2514195	34675.03	32854.03
0	2514196	34675.03	32754.03
0	2514197	34675.03	34453.03
0	2514198	34675.03	34353.03
0	2514199	34675.03	34253.03
0	2514200	34675.03	34153.03
0	2514201	34675.03	34053.03
0	2514202	34675.03	33953.03
0	2514203	34675.03	33853.03
0	2514204	34675.03	33753.03
0	2514205	34675.03	33653.03
0	2514206	34675.03	33553.03
0	2514207	34675.03	33453.03
0	2514208	34675.03	33353.03
0	2514209	34675.03	33253.03
0	2514210	34675.03	33153.03
0	2514211	34675.03	33053.03
0	2514212	34675.03	32953.03
0	2514213	34675.03	32853.03
0	2514214	34675.03	32753.03
0	2514215	34675.03	34452.03
0	2514216	34675.03	34352.03
0	2514217	34675.03	34252.03
0	2514218	34675.03	34152.03
0	2514219	34675.03	34052.03
0	2514220	34675.03	33952.03
0	2514221	34675.03	33852.03
0	2514222	34675.03	33752.03
0	2514223	34675.03	33652.03
0	2514224	34675.03	33552.03
0	2514225	34675.03	33452.03
0	2514226	34675.03	33352.03
0	2514227	34675.03	33252.03
0	2514228	34675.03	33152.03
0	2514229	34675.03	33052.03
0	2514230	34675.03	32952.03
0	2514231	34675.03	32852.03
0	2514232	34675.03	32752.03
0	2514233	34675.03	34451.03
0	2514234	34675.03	34351.03
0	2514235	34675.03	34251.03
0	2514236	34675.03	34151.03
0	2514237	34675.03	34051.03
0	2514238	34675.03	33951.03
0	2514239	34675.03	33851.03
0	2514240	34675.03	33751.03
0	2514241	34675.03	33651.03
0	2514242	34675.03	33551.03
0	2514243	34675.03	33451.03
0	2514244	34675.03	33351.03
0	2514245	34675.03	33251.03
0	2514246	34675.03	33151.03
0	2514247	34675.03	33051.03
0	2514248	34675.03	32951.03
0	2514249	34675.03	32851.03
0	2514250	34675.03	32751.03
0	2514251	34675.03	34450.03
0	2514252	34675.03	34350.03
0	2514253	34675.03	34250.03
0	2514254	34675.03	34150.03
0	2514255	34675.03	34050.03
0	2514256	34675.03	33950.03
0	2514257	34675.03	33850.03
0	2514258	34675.03	33750.03
0	2514259	34675.03	33650.03
0	2514260	34675.03	33550.03
0	2514261	34675.03	33450.03
0	2514262	34675.03	33350.03
0	2514263	34675.03	33250.03
0	2514264	34675.03	33150.03
0	2514265	34675.03	33050.03
0	2514266	34675.03	32950.03
0	2514267	34675.03	32850.03
0	2514268	34675.03	32750.03
0	2514269	34675.03	34449.03
0	2514270	34675.03	34349.03
0	2514271	34675.03	34249.03
0	2514272	34675.03	34149.03
0	2514273	34675.03	34049.03
0	2514274	34675.03	33949.03
0	2514275	34675.03	33849.03
0	2514276	34675.03	33749.03
0	2514277	34675.03	33649.03
0	2514278	34675.03	33549.03
0	2514279	34675.03	33449.03
0	2514280	34675.03	33349.03
0	2514281	34675.03	33249.03
0	2514282	34675.03	33149.03
0	2514283	34675.03	33049.03
0	2514284	34675.03	32949.03
0	2514285	34675.03	32849.03
0	2514286	34675.03	32749.03
0	2514287	34675.03	34448.03
0	2514288	34675.03	34348.03
0	2514289	34675.03	34248.03
0	2514290	34675.03	34148.03
0	2514291	34675.03	34048.03
0	2514292	34675.03	33948.03
0	2514293	34675.03	33848.03
0	2514294	34675.03	33748.03
0	2514295	34675.03	33648.03
0	2514296	34675.03	33548.03
0	2514297	34675.03	33448.03
0	2514298	34675.03	33348.03
0	2514299	34675.03	33248.03
0	2514300	34675.03	33148.03
0	2514301	34675.03	33048.03
0	2514302	34675.03	32948.03
0	2514303	34675.03	32848.03
0	2514304	34675.03	32748.03
0	2514305	34675.03	34447.03
0	2514306	34675.03	34347.03
0	2514307	34675.03	34247.03
0	2514308	34675.03	34147.03
0	2514309	34675.03	34047.03
0	2514310	34675.03	33947.03
0	2514311	34675.03	33847.03
0	2514312	34675.03	33747.03
0	2514313	34675.03	33647.03
0	2514314	34675.03	33547.03
0	2514315	34675.03	33447.03
0	2514316	34675.03	33347.03
0	2514317	34675.03	33247.03
0	2514318	34675.03	33147.03
0	2514319	34675.03	33047.03
0	2514320	34675.03	32947.03
0	2514321	34675.03	32847.03
0	2514322	34675.03	32747.03
0	2514323	34675.03	34446.03
0	2514324	34675.03	34346.03
0	2514325	34675.03	34246.03
0	2514326	34675.03	34146.03
0	2514327	34675.03	34046.03
0	2514328	34675.03	33946.03
0	2514329	34675.03	33846.03
0	2514330	34675.03	33746.03
0	2514331	34675.03	33646.03
0	2514332	34675.03	33546.03
0	2514333	34675.03	33446.03
0	2514334	34675.03	33346.03
0	2514335	34675.03	33246.03
0	2514336	34675.03	33146.03
0	2514337	34675.03	33046.03
0	2514338	34675.03	32946.03
0	2514339	34675.03	32846.03
0	2514340	34675.03	32746.03
0	2514341	34675.03	34445.03
0	2514342	34675.03	34345.03
0	2514343	34675.03	34245.03
0	2514344	34675.03	34145.03
0	2514345	34675.03	34045.03
0	2514346	34675.03	33945.03
0	2514347	34675.03	33845.03
0	2514348	34675.03	33745.03
0	2514349	34675.03	33645.03
0	2514350	34675.03	33545.03
0	2514351	34675.03	33445.03
0	2514352	34675.03	33345.03
0	2514353	34675.03	33245.03
0	2514354	34675.03	33145.03
0	2514355	34675.03	33045.03
0	2514356	34675.03	32945.03
0	2514357	34675.03	32845.03
0	2514358	34675.03	32745.03
0	2514359	34675.03	34444.03
0	2514360	34675.03	34344.03
0	2514361	34675.03	34244.03
0	2514362	34675.03	34144.03
0	2514363	34675.03	34044.03
0	2514364	34675.03	33944.03
0	2514365	34675.03	33844.03
0	2514366	34675.03	33744.03
0	2514367	34675.03	33644.03
0	2514368	34675.03	33544.03
0	2514369	34675.03	33444.03
0	2514370	34675.03	33344.03
0	2514371	34675.03	33244.03
0	2514372	34675.03	33144.03
0	2514373	34675.03	33044.03
0	2514374	34675.03	32944.03
0	2514375	34675.03	32844.03
0	2514376	34675.03	32744.03
0	2514377	34675.03	34443.03
0	2514378	34675.03	34343.03
0	2514379	34675.03	34243.03
0	2514380	34675.03	34143.03
0	2514381	34675.03	34043.03
0	2514382	34675.03	33943.03
0	2514383	34675.03	33843.03
0	2514384	34675.03	33743.03
0	2514385	34675.03	33643.03
0	2514386	34675.03	33543.03
0	2514387	34675.03	33443.03
0	2514388	34675.03	33343.03
0	2514389	34675.03	33243.03
0	2514390	34675.03	33143.03
0	2514391	34675.03	33043.03
0	2514392	34675.03	32943.03
0	2514393	34675.03	32843.03
0	2514394	34675.03	32743.03
0	2514395	34675.03	34442.03
0	2514396	34675.03	34342.03
0	2514397	34675.03	34242.03
0	2514398	34675.03	34142.03
0	2514399	34675.03	34042.03
0	2514400	34675.03	33942.03
0	2514401	34675.03	33842.03
0	2514402	34675.03	33742.03
0	2514403	34675.03	33642.03
0	2514404	34675.03	33542.03
0	2514405	34675.03	33442.03
0	2514406	34675.03	33342.03
0	2514407	34675.03	33242.03
0	2514408	34675.03	33142.03
0	2514409	34675.03	33042.03
0	2514410	34675.03	32942.03
0	2514411	34675.03	32842.03
0	2514412	34675.03	32742.03
0	2514413	34675.03	34441.03
0	2514414	34675.03	34341.03
0	2514415	34675.03	34241.03
0	2514416	34675.03	34141.03
0	2514417	34675.03	34041.03
0	2514418	34675.03	33941.03
0	2514419	34675.03	33841.03
0	2514420	34675.03	33741.03
0	2514421	34675.03	33641.03
0	2514422	34675.03	33541.03
0	2514423	34675.03	33441.03
0	2514424	34675.03	33341.03
0	2514425	34675.03	33241.03
0	2514426	34675.03	33141.03
0	2514427	34675.03	33041.03
0	2514428	34675.03	32941.03
0	2514429	34675.03	32841.03
0	2514430	34675.03	32741.03
0	2514431	34675.03	34440.03
0	2514432	34675.03	34340.03
0	2514433	34675.03	34240.03
0	2514434	34675.03	34140.03
0	2514435	34675.03	34040.03
0	2514436	34675.03	33940.03
0	2514437	34675.03	33840.03
0	2514438	34675.03	33740.03
0	2514439	34675.03	33640.03
0	2514440	34675.03	33540.03
0	2514441	34675.03	33440.03
0	2514442	34675.03	33340.03
0	2514443	34675.03	33240.03
0	2514444	34675.03	33140.03
0	2514445	34675.03	33040.03
0	2514446	34675.03	32940.03
0	2514447	34675.03	32840.03
0	2514448	34675.03	32740.03
0	2514449	34675.03	34439.03
0	2514450	34675.03	34339.03
0	2514451	34675.03	34239.03
0	2514452	34675.03	34139.03
0	2514453	34675.03	34039.03
0	2514454	34675.03	33939.03
0	2514455	34675.03	33839.03
0	2514456	34675.03	33739.03
0	2514457	34675.03	33639.03
0	2514458	34675.03	33539.03
0	2514459	34675.03	33439.03
0	2514460	34675.03	33339.03
0	2514461	34675.03	33239.03
0	2514462	34675.03	33139.03
0	2514463	34675.03	33039.03
0	2514464	34675.03	32939.03
0	2514465	34675.03	32839.03
0	2514466	34675.03	32739.03
0	2514467	34675.03	34438.03
0	2514468	34675.03	34338.03
0	2514469	34675.03	34238.03
0	2514470	34675.03	34138.03
0	2514471	34675.03	34038.03
0	2514472	34675.03	33938.03
0	2514473	34675.03	33838.03
0	2514474	34675.03	33738.03
0	2514475	34675.03	33638.03
0	2514476	34675.03	33538.03
0	2514477	34675.03	33438.03
0	2514478	34675.03	33338.03
0	2514479	34675.03	33238.03
0	2514480	34675.03	33138.03
0	2514481	34675.03	33038.03
0	2514482	34675.03	32938.03
0	2514483	34675.03	32838.03
0	2514484	34675.03	32738.03
0	2514485	34675.03	34437.03
0	2514486	34675.03	34337.03
0	2514487	34675.03	34237.03
0	2514488	34675.03	34137.03
0	2514489	34675.03	34037.03
0	2514490	34675.03	33937.03
0	2514491	34675.03	33837.03
0	2514492	34675.03	33737.03
0	2514493	34675.03	33637.03
0	2514494	34675.03	33537.03
0	2514495	34675.03	33437.03
0	2514496	34675.03	33337.03
0	2514497	34675.03	33237.03
0	2514498	34675.03	33137.03
0	2514499	34675.03	33037.03
0	2514500	34675.03	32937.03
0	2514501	34675.03	32837.03
0	2514502	34675.03	32737.03
0	2514503	34675.03	34436.03
0	2514504	34675.03	34336.03
0	2514505	34675.03	34236.03
0	2514506	34675.03	34136.03
0	2514507	34675.03	34036.03
0	2514508	34675.03	33936.03
0	2514509	34675.03	33836.03
0	2514510	34675.03	33736.03
0	2514511	34675.03	33636.03
0	2514512	34675.03	33536.03
0	2514513	34675.03	33436.03
0	2514514	34675.03	33336.03
0	2514515	34675.03	33236.03
0	2514516	34675.03	33136.03
0	2514517	34675.03	33036.03
0	2514518	34675.03	32936.03
0	2514519	34675.03	32836.03
0	2514520	34675.03	32736.03
0	2514521	34675.03	34435.03
0	2514522	34675.03	34335.03
0	2514523	34675.03	34235.03
0	2514524	34675.03	34135.03
0	2514525	34675.03	34035.03
0	2514526	34675.03	33935.03
0	2514527	34675.03	33835.03
0	2514528	34675.03	33735.03
0	2514529	34675.03	33635.03
0	2514530	34675.03	33535.03
0	2514531	34675.03	33435.03
0	2514532	34675.03	33335.03
0	2514533	34675.03	33235.03
0	2514534	34675.03	33135.03
0	2514535	34675.03	33035.03
0	2514536	34675.03	32935.03
0	2514537	34675.03	32835.03
0	2514538	34675.03	32735.03
0	2514539	34675.03	34434.03
0	2514540	34675.03	34334.03
0	2514541	34675.03	34234.03
0	2514542	34675.03	34134.03
0	2514543	34675.03	34034.03
0	2514544	34675.03	33934.03
0	2514545	34675.03	33834.03
0	2514546	34675.03	33734.03
0	2514547	34675.03	33634.03
0	2514548	34675.03	33534.03
0	2514549	34675.03	33434.03
0	2514550	34675.03	33334.03
0	2514551	34675.03	33234.03
0	2514552	34675.03	33134.03
0	2514553	34675.03	33034.03
0	2514554	34675.03	32934.03
0	2514555	34675.03	32834.03
0	2514556	34675.03	32734.03
0	2514557	34675.03	34433.03
0	2514558	34675.03	34333.03
0	2514559	34675.03	34233.03
0	2514560	34675.03	34133.03
0	2514561	34675.03	34033.03
0	2514562	34675.03	33933.03
0	2514563	34675.03	33833.03
0	2514564	34675.03	33733.03
0	2514565	34675.03	33633.03
0	2514566	34675.03	33533.03
0	2514567	34675.03	33433.03
0	2514568	34675.03	33333.03
0	2514569	34675.03	33233.03
0	2514570	34675.03	33133.03
0	2514571	34675.03	33033.03
0	2514572	34675.03	32933.03
0	2514573	34675.03	32833.03
0	2514574	34675.03	32733.03
0	2514575	34675.03	34432.03
0	2514576	34675.03	34332.03
0	2514577	34675.03	34232.03
0	2514578	34675.03	34132.03
0	2514579	34675.03	34032.03
0	2514580	34675.03	33932.03
0	2514581	34675.03	33832.03
0	2514582	34675.03	33732.03
0	2514583	34675.03	33632.03
0	2514584	34675.03	33532.03
0	2514585	34675.03	33432.03
0	2514586	34675.03	33332.03
0	2514587	34675.03	33232.03
0	2514588	34675.03	33132.03
0	2514589	34675.03	33032.03
0	2514590	34675.03	32932.03
0	2514591	34675.03	32832.03
0	2514592	34675.03	32732.03
0	2514593	34675.03	34431.03
0	2514594	34675.03	34331.03
0	2514595	34675.03	34231.03
0	2514596	34675.03	34131.03
0	2514597	34675.03	34031.03
0	2514598	34675.03	33931.03
0	2514599	34675.03	33831.03
0	2514600	34675.03	33731.03
0	2514601	34675.03	33631.03
0	2514602	34675.03	33531.03
0	2514603	34675.03	33431.03
0	2514604	34675.03	33331.03
0	2514605	34675.03	33231.03
0	2514606	34675.03	33131.03
0	2514607	34675.03	33031.03
0	2514608	34675.03	32931.03
0	2514609	34675.03	32831.03
0	2514610	34675.03	32731.03
0	2514611	34675.03	34430.03
0	2514612	34675.03	34330.03
0	2514613	34675.03	34230.03
0	2514614	34675.03	34130.03
0	2514615	34675.03	34030.03
0	2514616	34675.03	33930.03
0	2514617	34675.03	33830.03
0	2514618	34675.03	33730.03
0	2514619	34675.03	33630.03
0	2514620	34675.03	33530.03
0	2514621	34675.03	33430.03
0	2514622	34675.03	33330.03
0	2514623	34675.03	33230.03
0	2514624	34675.03	33130.03
0	2514625	34675.03	33030.03
0	2514626	34675.03	32930.03
0	2514627	34675.03	32830.03
0	2514628	34675.03	32730.03
0	2514629	34675.03	34429.03
0	2514630	34675.03	34329.03
0	2514631	34675.03	34229.03
0	2514632	34675.03	34129.03
0	2514633	34675.03	34029.03
0	2514634	34675.03	33929.03
0	2514635	34675.03	33829.03
0	2514636	34675.03	33729.03
0	2514637	34675.03	33629.03
0	2514638	34675.03	33529.03
0	2514639	34675.03	33429.03
0	2514640	34675.03	33329.03
0	2514641	34675.03	33229.03
0	2514642	34675.03	33129.03
0	2514643	34675.03	33029.03
0	2514644	34675.03	32929.03
0	2514645	34675.03	32829.03
0	2514646	34675.03	32729.03
0	2514647	34675.03	34428.03
0	2514648	34675.03	34328.03
0	2514649	34675.03	34228.03
0	2514650	34675.03	34128.03
0	2514651	34675.03	34028.03
0	2514652	34675.03	33928.03
0	2514653	34675.03	33828.03
0	2514654	34675.03	33728.03
0	2514655	34675.03	33628.03
0	2514656	34675.03	33528.03
0	2514657	34675.03	33428.03
0	2514658	34675.03	33328.03
0	2514659	34675.03	33228.03
0	2514660	34675.03	33128.03
0	2514661	34675.03	33028.03
0	2514662	34675.03	32928.03
0	2514663	34675.03	32828.03
0	2514664	34675.03	32728.03
0	2514665	34675.03	34427.03
0	2514666	34675.03	34327.03
0	2514667	34675.03	34227.03
0	2514668	34675.03	34127.03
0	2514669	34675.03	34027.03
0	2514670	34675.03	33927.03
0	2514671	34675.03	33827.03
0	2514672	34675.03	33727.03
0	2514673	34675.03	33627.03
0	2514674	34675.03	33527.03
0	2514675	34675.03	33427.03
0	2514676	34675.03	33327.03
0	2514677	34675.03	33227.03
0	2514678	34675.03	33127.03
0	2514679	34675.03	33027.03
0	2514680	34675.03	32927.03
0	2514681	34675.03	32827.03
0	2514682	34675.03	32727.03
0	2514683	34675.03	34426.03
0	2514684	34675.03	34326.03
0	2514685	34675.03	34226.03
0	2514686	34675.03	34126.03
0	2514687	34675.03	34026.03
0	2514688	34675.03	33926.03
0	2514689	34675.03	33826.03
0	2514690	34675.03	33726.03
0	2514691	34675.03	33626.03
0	2514692	34675.03	33526.03
0	2514693	34675.03	33426.03
0	2514694	34675.03	33326.03
0	2514695	34675.03	33226.03
0	2514696	34675.03	33126.03
0	2514697	34675.03	33026.03
0	2514698	34675.03	32926.03
0	2514699	34675.03	32826.03
0	2514700	34675.03	32726.03
0	2514701	34675.03	34425.03
0	2514702	34675.03	34325.03
0	2514703	34675.03	34225.03
0	2514704	34675.03	34125.03
0	2514705	34675.03	34025.03
0	2514706	34675.03	33925.03
0	2514707	34675.03	33825.03
0	2514708	34675.03	33725.03
0	2514709	34675.03	33625.03
0	2514710	34675.03	33525.03
0	2514711	34675.03	33425.03
0	2514712	34675.03	33325.03
0	2514713	34675.03	33225.03
0	2514714	34675.03	33125.03
0	2514715	34675.03	33025.03
0	2514716	34675.03	32925.03
0	2514717	34675.03	32825.03
0	2514718	34675.03	32725.03
0	2514719	34675.03	34424.03
0	2514720	34675.03	34324.03
0	2514721	34675.03	34224.03
0	2514722	34675.03	34124.03
0	2514723	34675.03	34024.03
0	2514724	34675.03	33924.03
0	2514725	34675.03	33824.03
0	2514726	34675.03	33724.03
0	2514727	34675.03	33624.03
0	2514728	34675.03	33524.03
0	2514729	34675.03	33424.03
0	2514730	34675.03	33324.03
0	2514731	34675.03	33224.03
0	2514732	34675.03	33124.03
0	2514733	34675.03	33024.03
0	2514734	34675.03	32924.03
0	2514735	34675.03	32824.03
0	2514736	34675.03	32724.03
0	2514737	34675.03	34423.03
0	2514738	34675.03	34323.03
0	2514739	34675.03	34223.03
0	2514740	34675.03	34123.03
0	2514741	34675.03	34023.03
0	2514742	34675.03	33923.03
0	2514743	34675.03	33823.03
0	2514744	34675.03	33723.03
0	2514745	34675.03	33623.03
0	2514746	34675.03	33523.03
0	2514747	34675.03	33423.03
0	2514748	34675.03	33323.03
0	2514749	34675.03	33223.03
0	2514750	34675.03	33123.03
0	2514751	34675.03	33023.03
0	2514752	34675.03	32923.03
0	2514753	34675.03	32823.03
0	2514754	34675.03	32723.03

