version 2
run General-0-20250127-19:28:50-69012
attr configname General
attr datetime 20250127-19:28:50
attr experiment General
attr inifile shaw_false.ini
attr iterationvars ""
attr iterationvarsf ""
attr measurement ""
attr network src.dtnsim
attr processid 69012
attr repetition 0
attr replication #0
attr resultdir results
attr runnumber 0
attr seedset 0
param dtnsim.central.contactsFile "\"contactPlan/Contacts.txt\""
param dtnsim.central.contactsFile_A "\"contactPlan/Contacts.txt\""
param dtnsim.central.contactsFile_B "\"contactPlan/Contacts.txt\""
param dtnsim.central.contactIdsToDelete "\"7 9 15 16 18 21 24 25 45 50 53 56 59 66 68 77 79 81 91 94 95 96 97 102 106 111 115 122 127 128 129 130 131 132 134 135 136 137 139 148 150 152 153 156 161 162 164 165 168 172 173 182 185 186 199 200 205 211 214 220 231 234 237 243 244 247 249 252 256 257 262 268 280 283 291 293 298 302 304 316 329 330 331 335 336 348 349 358 359 360 361 366 368 371 373 376 380 383 384 388\""
param dtnsim.central.contactIdsToDelete_from_celestialA "\"9 15 25 50 53 56 59 66 77 79 95 96 97 102 106 127 129 132 136 137 139 148 156 161 165 182 186 199 205 220 234 237 244 247 256 257 280 283 291 293 298 304 316 331 335 349 360 368 371 373 380 384 388\""
param dtnsim.central.contactIdsToDelete_from_celestialB "\"7 16 18 21 24 45 68 81 91 94 111 115 122 128 130 131 134 135 150 152 153 162 164 168 172 173 185 200 211 214 231 243 249 252 262 268 302 329 330 336 348 358 359 361 366 376 383\""
param dtnsim.central.celestialA_nodes "\"1 2 3\""
param dtnsim.central.celestialB_nodes "\"4 5 6\""
param dtnsim.central.locallyfaultsAware false
param dtnsim.central.mode_two_celestial true
param dtnsim.central.faultsAware false
param dtnsim.nodesNumber 6
param dtnsim.node[1].icon "\"receiverdish\""
param dtnsim.node[2..5].icon "\"satellite\""
param dtnsim.node[6].icon "\"receiverdish\""
param dtnsim.node[*].dtn.routing "\"cgrModel350\""
param dtnsim.node[*].dtn.routingType "\"routeListType:allPaths-firstEnding,volumeAware:allContacts,extensionBlock:on,contactPlan:global\""
param dtnsim.node[1].app.enable true
param dtnsim.node[1].app.custodyTransfer true
param dtnsim.node[1].app.bundlesNumber "\"2000\""
param dtnsim.node[1].app.start "\"0\""
param dtnsim.node[1].app.destinationEid "\"6\""
param dtnsim.node[1].app.size "\"1500\""
param dtnsim.node[1].app.interval 10
param dtnsim.node[*].app.custodyTimeout 10000
param dtnsim.node[1].app.ttl 1000

vector 0 dtnsim.node[6].app appBundleReceivedDelayvec:vector ETV
attr interpolationmode none
attr source appBundleReceivedDelay
attr title "appBundleReceivedDelayvec, vector"
0	1638	531.21	531.21
0	1639	531.21	521.21
0	1640	531.21	511.21
0	1641	531.21	501.21
0	1642	531.21	491.21
0	1643	531.21	481.21
0	1644	531.21	471.21
0	1645	531.21	461.21
0	1646	531.21	451.21
0	1647	531.21	441.21
0	1648	531.21	431.21
0	1649	531.21	421.21
0	1650	531.21	411.21
0	1651	531.21	401.21
0	1652	531.21	391.21
0	1653	531.21	381.21
0	1654	531.21	371.21
0	1655	531.21	361.21
0	1656	531.21	351.21
0	1657	531.21	341.21
0	1658	531.21	331.21
0	1659	531.21	321.21
0	1660	531.21	311.21
0	1661	531.21	301.21
0	1662	531.21	291.21
0	1663	531.21	281.21
0	1664	531.21	271.21
0	1665	531.21	261.21
0	1666	531.21	251.21
0	1667	531.21	241.21
0	1668	531.21	231.21
0	1669	531.21	221.21
0	1670	531.21	211.21
0	1671	531.21	201.21
0	1954	540.21	200.21
0	2010	550.21	200.21
0	2064	560.21	200.21
0	2121	570.21	200.21
0	2178	580.21	200.21
0	2233	590.21	200.21
0	2288	600.21	200.21
0	2343	610.21	200.21
0	2398	620.21	200.21
0	2453	630.21	200.21
0	2984	631.21	631.21
0	2985	631.21	621.21
0	2986	631.21	611.21
0	2987	631.21	601.21
0	2988	631.21	591.21
0	2989	631.21	581.21
0	2990	631.21	571.21
0	2991	631.21	561.21
0	2992	631.21	551.21
0	2993	631.21	541.21
0	2994	631.21	531.21
0	2995	631.21	521.21
0	2996	631.21	511.21
0	2997	631.21	501.21
0	2998	631.21	491.21
0	2999	631.21	481.21
0	3000	631.21	471.21
0	3001	631.21	461.21
0	3002	631.21	451.21
0	3003	631.21	441.21
0	3004	631.21	431.21
0	3005	631.21	421.21
0	3006	631.21	411.21
0	3007	631.21	401.21
0	3008	631.21	391.21
0	3009	631.21	381.21
0	3010	631.21	371.21
0	3011	631.21	361.21
0	3012	631.21	351.21
0	3013	631.21	341.21
0	3014	631.21	331.21
0	3015	631.21	321.21
0	3016	631.21	311.21
0	3017	631.21	301.21
0	3316	640.21	300.21
0	3317	640.21	200.21
0	3394	650.21	300.21
0	3395	650.21	200.21
0	3472	660.21	300.21
0	3473	660.21	200.21
0	3550	670.21	300.21
0	3551	670.21	200.21
0	3628	680.21	300.21
0	3629	680.21	200.21
0	3706	690.21	300.21
0	3707	690.21	200.21
0	3784	700.21	300.21
0	3785	700.21	200.21
0	3862	710.21	300.21
0	3863	710.21	200.21
0	3940	720.21	300.21
0	3941	720.21	200.21
0	4018	730.21	300.21
0	4019	730.21	200.21
0	4557	731.21	731.21
0	4558	731.21	721.21
0	4559	731.21	711.21
0	4560	731.21	701.21
0	4561	731.21	691.21
0	4562	731.21	681.21
0	4563	731.21	671.21
0	4564	731.21	661.21
0	4565	731.21	651.21
0	4566	731.21	641.21
0	4567	731.21	631.21
0	4568	731.21	621.21
0	4569	731.21	611.21
0	4570	731.21	601.21
0	4571	731.21	591.21
0	4572	731.21	581.21
0	4573	731.21	571.21
0	4574	731.21	561.21
0	4575	731.21	551.21
0	4576	731.21	541.21
0	4577	731.21	531.21
0	4578	731.21	521.21
0	4579	731.21	511.21
0	4580	731.21	501.21
0	4581	731.21	491.21
0	4582	731.21	481.21
0	4583	731.21	471.21
0	4584	731.21	461.21
0	4585	731.21	451.21
0	4586	731.21	441.21
0	4587	731.21	431.21
0	4588	731.21	421.21
0	4589	731.21	411.21
0	4590	731.21	401.21
0	4904	740.21	400.21
0	4905	740.21	300.21
0	4906	740.21	200.21
0	5005	750.21	400.21
0	5006	750.21	300.21
0	5007	750.21	200.21
0	5106	760.21	400.21
0	5107	760.21	300.21
0	5108	760.21	200.21
0	5207	770.21	400.21
0	5208	770.21	300.21
0	5209	770.21	200.21
0	5308	780.21	400.21
0	5309	780.21	300.21
0	5310	780.21	200.21
0	5409	790.21	400.21
0	5410	790.21	300.21
0	5411	790.21	200.21
0	5510	800.21	400.21
0	5511	800.21	300.21
0	5512	800.21	200.21
0	5611	810.21	400.21
0	5612	810.21	300.21
0	5613	810.21	200.21
0	5712	820.21	400.21
0	5713	820.21	300.21
0	5714	820.21	200.21
0	5813	830.21	400.21
0	5814	830.21	300.21
0	5815	830.21	200.21
0	6360	831.21	831.21
0	6361	831.21	821.21
0	6362	831.21	811.21
0	6363	831.21	801.21
0	6364	831.21	791.21
0	6365	831.21	781.21
0	6366	831.21	771.21
0	6367	831.21	761.21
0	6368	831.21	751.21
0	6369	831.21	741.21
0	6370	831.21	731.21
0	6371	831.21	721.21
0	6372	831.21	711.21
0	6373	831.21	701.21
0	6374	831.21	691.21
0	6375	831.21	681.21
0	6376	831.21	671.21
0	6377	831.21	661.21
0	6378	831.21	651.21
0	6379	831.21	641.21
0	6380	831.21	631.21
0	6381	831.21	621.21
0	6382	831.21	611.21
0	6383	831.21	601.21
0	6384	831.21	591.21
0	6385	831.21	581.21
0	6386	831.21	571.21
0	6387	831.21	561.21
0	6388	831.21	551.21
0	6389	831.21	541.21
0	6390	831.21	531.21
0	6391	831.21	521.21
0	6392	831.21	511.21
0	6393	831.21	501.21
0	6722	840.21	500.21
0	6723	840.21	400.21
0	6724	840.21	300.21
0	6725	840.21	200.21
0	6846	850.21	500.21
0	6847	850.21	400.21
0	6848	850.21	300.21
0	6849	850.21	200.21
0	6970	860.21	500.21
0	6971	860.21	400.21
0	6972	860.21	300.21
0	6973	860.21	200.21
0	7094	870.21	500.21
0	7095	870.21	400.21
0	7096	870.21	300.21
0	7097	870.21	200.21
0	7218	880.21	500.21
0	7219	880.21	400.21
0	7220	880.21	300.21
0	7221	880.21	200.21
0	7342	890.21	500.21
0	7343	890.21	400.21
0	7344	890.21	300.21
0	7345	890.21	200.21
0	7466	900.21	500.21
0	7467	900.21	400.21
0	7468	900.21	300.21
0	7469	900.21	200.21
0	7590	910.21	500.21
0	7591	910.21	400.21
0	7592	910.21	300.21
0	7593	910.21	200.21
0	7714	920.21	500.21
0	7715	920.21	400.21
0	7716	920.21	300.21
0	7717	920.21	200.21
0	7838	930.21	500.21
0	7839	930.21	400.21
0	7840	930.21	300.21
0	7841	930.21	200.21
0	8393	931.21	931.21
0	8394	931.21	921.21
0	8395	931.21	911.21
0	8396	931.21	901.21
0	8397	931.21	891.21
0	8398	931.21	881.21
0	8399	931.21	871.21
0	8400	931.21	861.21
0	8401	931.21	851.21
0	8402	931.21	841.21
0	8403	931.21	831.21
0	8404	931.21	821.21
0	8405	931.21	811.21
0	8406	931.21	801.21
0	8407	931.21	791.21
0	8408	931.21	781.21
0	8409	931.21	771.21
0	8410	931.21	761.21
0	8411	931.21	751.21
0	8412	931.21	741.21
0	8413	931.21	731.21
0	8414	931.21	721.21
0	8415	931.21	711.21
0	8416	931.21	701.21
0	8417	931.21	691.21
0	8418	931.21	681.21
0	8419	931.21	671.21
0	8420	931.21	661.21
0	8421	931.21	651.21
0	8422	931.21	641.21
0	8423	931.21	631.21
0	8424	931.21	621.21
0	8425	931.21	611.21
0	8426	931.21	601.21
0	8770	940.21	600.21
0	8771	940.21	500.21
0	8772	940.21	400.21
0	8773	940.21	300.21
0	8774	940.21	200.21
0	8917	950.21	600.21
0	8918	950.21	500.21
0	8919	950.21	400.21
0	8920	950.21	300.21
0	8921	950.21	200.21
0	9064	960.21	600.21
0	9065	960.21	500.21
0	9066	960.21	400.21
0	9067	960.21	300.21
0	9068	960.21	200.21
0	9211	970.21	600.21
0	9212	970.21	500.21
0	9213	970.21	400.21
0	9214	970.21	300.21
0	9215	970.21	200.21
0	9358	980.21	600.21
0	9359	980.21	500.21
0	9360	980.21	400.21
0	9361	980.21	300.21
0	9362	980.21	200.21
0	9505	990.21	600.21
0	9506	990.21	500.21
0	9507	990.21	400.21
0	9508	990.21	300.21
0	9509	990.21	200.21
0	9652	1000.21	600.21
0	9653	1000.21	500.21
0	9654	1000.21	400.21
0	9655	1000.21	300.21
0	9656	1000.21	200.21
0	9799	1010.21	600.21
0	9800	1010.21	500.21
0	9801	1010.21	400.21
0	9802	1010.21	300.21
0	9803	1010.21	200.21
0	9946	1020.21	600.21
0	9947	1020.21	500.21
0	9948	1020.21	400.21
0	9949	1020.21	300.21
0	9950	1020.21	200.21
0	10093	1030.21	600.21
0	10094	1030.21	500.21
0	10095	1030.21	400.21
0	10096	1030.21	300.21
0	10097	1030.21	200.21
0	10656	1031.21	1031.21
0	10657	1031.21	1021.21
0	10658	1031.21	1011.21
0	10659	1031.21	1001.21
0	10660	1031.21	991.21
0	10661	1031.21	981.21
0	10662	1031.21	971.21
0	10663	1031.21	961.21
0	10664	1031.21	951.21
0	10665	1031.21	941.21
0	10666	1031.21	931.21
0	10667	1031.21	921.21
0	10668	1031.21	911.21
0	10669	1031.21	901.21
0	10670	1031.21	891.21
0	10671	1031.21	881.21
0	10672	1031.21	871.21
0	10673	1031.21	861.21
0	10674	1031.21	851.21
0	10675	1031.21	841.21
0	10676	1031.21	831.21
0	10677	1031.21	821.21
0	10678	1031.21	811.21
0	10679	1031.21	801.21
0	10680	1031.21	791.21
0	10681	1031.21	781.21
0	10682	1031.21	771.21
0	10683	1031.21	761.21
0	10684	1031.21	751.21
0	10685	1031.21	741.21
0	10686	1031.21	731.21
0	10687	1031.21	721.21
0	10688	1031.21	711.21
0	10689	1031.21	701.21
0	11048	1040.21	700.21
0	11049	1040.21	600.21
0	11050	1040.21	500.21
0	11051	1040.21	400.21
0	11052	1040.21	300.21
0	11053	1040.21	200.21
0	11218	1050.21	700.21
0	11219	1050.21	600.21
0	11220	1050.21	500.21
0	11221	1050.21	400.21
0	11222	1050.21	300.21
0	11223	1050.21	200.21
0	11388	1060.21	700.21
0	11389	1060.21	600.21
0	11390	1060.21	500.21
0	11391	1060.21	400.21
0	11392	1060.21	300.21
0	11393	1060.21	200.21
0	11558	1070.21	700.21
0	11559	1070.21	600.21
0	11560	1070.21	500.21
0	11561	1070.21	400.21
0	11562	1070.21	300.21
0	11563	1070.21	200.21
0	11728	1080.21	700.21
0	11729	1080.21	600.21
0	11730	1080.21	500.21
0	11731	1080.21	400.21
0	11732	1080.21	300.21
0	11733	1080.21	200.21
0	11898	1090.21	700.21
0	11899	1090.21	600.21
0	11900	1090.21	500.21
0	11901	1090.21	400.21
0	11902	1090.21	300.21
0	11903	1090.21	200.21
0	12068	1100.21	700.21
0	12069	1100.21	600.21
0	12070	1100.21	500.21
0	12071	1100.21	400.21
0	12072	1100.21	300.21
0	12073	1100.21	200.21
0	12238	1110.21	700.21
0	12239	1110.21	600.21
0	12240	1110.21	500.21
0	12241	1110.21	400.21
0	12242	1110.21	300.21
0	12243	1110.21	200.21
0	12408	1120.21	700.21
0	12409	1120.21	600.21
0	12410	1120.21	500.21
0	12411	1120.21	400.21
0	12412	1120.21	300.21
0	12413	1120.21	200.21
0	12578	1130.21	700.21
0	12579	1130.21	600.21
0	12580	1130.21	500.21
0	12581	1130.21	400.21
0	12582	1130.21	300.21
0	12583	1130.21	200.21
0	13149	1131.21	1131.21
0	13150	1131.21	1121.21
0	13151	1131.21	1111.21
0	13152	1131.21	1101.21
0	13153	1131.21	1091.21
0	13154	1131.21	1081.21
0	13155	1131.21	1071.21
0	13156	1131.21	1061.21
0	13157	1131.21	1051.21
0	13158	1131.21	1041.21
0	13159	1131.21	1031.21
0	13160	1131.21	1021.21
0	13161	1131.21	1011.21
0	13162	1131.21	1001.21
0	13163	1131.21	991.21
0	13164	1131.21	981.21
0	13165	1131.21	971.21
0	13166	1131.21	961.21
0	13167	1131.21	951.21
0	13168	1131.21	941.21
0	13169	1131.21	931.21
0	13170	1131.21	921.21
0	13171	1131.21	911.21
0	13172	1131.21	901.21
0	13173	1131.21	891.21
0	13174	1131.21	881.21
0	13175	1131.21	871.21
0	13176	1131.21	861.21
0	13177	1131.21	851.21
0	13178	1131.21	841.21
0	13179	1131.21	831.21
0	13180	1131.21	821.21
0	13181	1131.21	811.21
0	13182	1131.21	801.21
0	13556	1140.21	800.21
0	13557	1140.21	700.21
0	13558	1140.21	600.21
0	13559	1140.21	500.21
0	13560	1140.21	400.21
0	13561	1140.21	300.21
0	13562	1140.21	200.21
0	13749	1150.21	800.21
0	13750	1150.21	700.21
0	13751	1150.21	600.21
0	13752	1150.21	500.21
0	13753	1150.21	400.21
0	13754	1150.21	300.21
0	13755	1150.21	200.21
0	13942	1160.21	800.21
0	13943	1160.21	700.21
0	13944	1160.21	600.21
0	13945	1160.21	500.21
0	13946	1160.21	400.21
0	13947	1160.21	300.21
0	13948	1160.21	200.21
0	14135	1170.21	800.21
0	14136	1170.21	700.21
0	14137	1170.21	600.21
0	14138	1170.21	500.21
0	14139	1170.21	400.21
0	14140	1170.21	300.21
0	14141	1170.21	200.21
0	14328	1180.21	800.21
0	14329	1180.21	700.21
0	14330	1180.21	600.21
0	14331	1180.21	500.21
0	14332	1180.21	400.21
0	14333	1180.21	300.21
0	14334	1180.21	200.21
0	14521	1190.21	800.21
0	14522	1190.21	700.21
0	14523	1190.21	600.21
0	14524	1190.21	500.21
0	14525	1190.21	400.21
0	14526	1190.21	300.21
0	14527	1190.21	200.21
0	14714	1200.21	800.21
0	14715	1200.21	700.21
0	14716	1200.21	600.21
0	14717	1200.21	500.21
0	14718	1200.21	400.21
0	14719	1200.21	300.21
0	14720	1200.21	200.21
0	14907	1210.21	800.21
0	14908	1210.21	700.21
0	14909	1210.21	600.21
0	14910	1210.21	500.21
0	14911	1210.21	400.21
0	14912	1210.21	300.21
0	14913	1210.21	200.21
0	15100	1220.21	800.21
0	15101	1220.21	700.21
0	15102	1220.21	600.21
0	15103	1220.21	500.21
0	15104	1220.21	400.21
0	15105	1220.21	300.21
0	15106	1220.21	200.21
0	15293	1230.21	800.21
0	15294	1230.21	700.21
0	15295	1230.21	600.21
0	15296	1230.21	500.21
0	15297	1230.21	400.21
0	15298	1230.21	300.21
0	15299	1230.21	200.21
0	15872	1231.21	1231.21
0	15873	1231.21	1221.21
0	15874	1231.21	1211.21
0	15875	1231.21	1201.21
0	15876	1231.21	1191.21
0	15877	1231.21	1181.21
0	15878	1231.21	1171.21
0	15879	1231.21	1161.21
0	15880	1231.21	1151.21
0	15881	1231.21	1141.21
0	15882	1231.21	1131.21
0	15883	1231.21	1121.21
0	15884	1231.21	1111.21
0	15885	1231.21	1101.21
0	15886	1231.21	1091.21
0	15887	1231.21	1081.21
0	15888	1231.21	1071.21
0	15889	1231.21	1061.21
0	15890	1231.21	1051.21
0	15891	1231.21	1041.21
0	15892	1231.21	1031.21
0	15893	1231.21	1021.21
0	15894	1231.21	1011.21
0	15895	1231.21	1001.21
0	15896	1231.21	991.21
0	15897	1231.21	981.21
0	15898	1231.21	971.21
0	15899	1231.21	961.21
0	15900	1231.21	951.21
0	15901	1231.21	941.21
0	15902	1231.21	931.21
0	15903	1231.21	921.21
0	15904	1231.21	911.21
0	15905	1231.21	901.21
0	16294	1240.21	900.21
0	16295	1240.21	800.21
0	16296	1240.21	700.21
0	16297	1240.21	600.21
0	16298	1240.21	500.21
0	16299	1240.21	400.21
0	16300	1240.21	300.21
0	16301	1240.21	200.21
0	16510	1250.21	900.21
0	16511	1250.21	800.21
0	16512	1250.21	700.21
0	16513	1250.21	600.21
0	16514	1250.21	500.21
0	16515	1250.21	400.21
0	16516	1250.21	300.21
0	16517	1250.21	200.21
0	16726	1260.21	900.21
0	16727	1260.21	800.21
0	16728	1260.21	700.21
0	16729	1260.21	600.21
0	16730	1260.21	500.21
0	16731	1260.21	400.21
0	16732	1260.21	300.21
0	16733	1260.21	200.21
0	16942	1270.21	900.21
0	16943	1270.21	800.21
0	16944	1270.21	700.21
0	16945	1270.21	600.21
0	16946	1270.21	500.21
0	16947	1270.21	400.21
0	16948	1270.21	300.21
0	16949	1270.21	200.21
0	17158	1280.21	900.21
0	17159	1280.21	800.21
0	17160	1280.21	700.21
0	17161	1280.21	600.21
0	17162	1280.21	500.21
0	17163	1280.21	400.21
0	17164	1280.21	300.21
0	17165	1280.21	200.21
0	17374	1290.21	900.21
0	17375	1290.21	800.21
0	17376	1290.21	700.21
0	17377	1290.21	600.21
0	17378	1290.21	500.21
0	17379	1290.21	400.21
0	17380	1290.21	300.21
0	17381	1290.21	200.21
0	17590	1300.21	900.21
0	17591	1300.21	800.21
0	17592	1300.21	700.21
0	17593	1300.21	600.21
0	17594	1300.21	500.21
0	17595	1300.21	400.21
0	17596	1300.21	300.21
0	17597	1300.21	200.21
0	17806	1310.21	900.21
0	17807	1310.21	800.21
0	17808	1310.21	700.21
0	17809	1310.21	600.21
0	17810	1310.21	500.21
0	17811	1310.21	400.21
0	17812	1310.21	300.21
0	17813	1310.21	200.21
0	18022	1320.21	900.21
0	18023	1320.21	800.21
0	18024	1320.21	700.21
0	18025	1320.21	600.21
0	18026	1320.21	500.21
0	18027	1320.21	400.21
0	18028	1320.21	300.21
0	18029	1320.21	200.21
0	18238	1330.21	900.21
0	18239	1330.21	800.21
0	18240	1330.21	700.21
0	18241	1330.21	600.21
0	18242	1330.21	500.21
0	18243	1330.21	400.21
0	18244	1330.21	300.21
0	18245	1330.21	200.21
0	18825	1331.21	1331.21
0	18826	1331.21	1321.21
0	18827	1331.21	1311.21
0	18828	1331.21	1301.21
0	18829	1331.21	1291.21
0	18830	1331.21	1281.21
0	18831	1331.21	1271.21
0	18832	1331.21	1261.21
0	18833	1331.21	1251.21
0	18834	1331.21	1241.21
0	18835	1331.21	1231.21
0	18836	1331.21	1221.21
0	18837	1331.21	1211.21
0	18838	1331.21	1201.21
0	18839	1331.21	1191.21
0	18840	1331.21	1181.21
0	18841	1331.21	1171.21
0	18842	1331.21	1161.21
0	18843	1331.21	1151.21
0	18844	1331.21	1141.21
0	18845	1331.21	1131.21
0	18846	1331.21	1121.21
0	18847	1331.21	1111.21
0	18848	1331.21	1101.21
0	18849	1331.21	1091.21
0	18850	1331.21	1081.21
0	18851	1331.21	1071.21
0	18852	1331.21	1061.21
0	18853	1331.21	1051.21
0	18854	1331.21	1041.21
0	18855	1331.21	1031.21
0	18856	1331.21	1021.21
0	18857	1331.21	1011.21
0	18858	1331.21	1001.21
0	19262	1340.21	1000.21
0	19263	1340.21	900.21
0	19264	1340.21	800.21
0	19265	1340.21	700.21
0	19266	1340.21	600.21
0	19267	1340.21	500.21
0	19268	1340.21	400.21
0	19269	1340.21	300.21
0	19270	1340.21	200.21
0	19501	1350.21	1000.21
0	19502	1350.21	900.21
0	19503	1350.21	800.21
0	19504	1350.21	700.21
0	19505	1350.21	600.21
0	19506	1350.21	500.21
0	19507	1350.21	400.21
0	19508	1350.21	300.21
0	19509	1350.21	200.21
0	19740	1360.21	1000.21
0	19741	1360.21	900.21
0	19742	1360.21	800.21
0	19743	1360.21	700.21
0	19744	1360.21	600.21
0	19745	1360.21	500.21
0	19746	1360.21	400.21
0	19747	1360.21	300.21
0	19748	1360.21	200.21
0	19979	1370.21	1000.21
0	19980	1370.21	900.21
0	19981	1370.21	800.21
0	19982	1370.21	700.21
0	19983	1370.21	600.21
0	19984	1370.21	500.21
0	19985	1370.21	400.21
0	19986	1370.21	300.21
0	19987	1370.21	200.21
0	20218	1380.21	1000.21
0	20219	1380.21	900.21
0	20220	1380.21	800.21
0	20221	1380.21	700.21
0	20222	1380.21	600.21
0	20223	1380.21	500.21
0	20224	1380.21	400.21
0	20225	1380.21	300.21
0	20226	1380.21	200.21
0	20457	1390.21	1000.21
0	20458	1390.21	900.21
0	20459	1390.21	800.21
0	20460	1390.21	700.21
0	20461	1390.21	600.21
0	20462	1390.21	500.21
0	20463	1390.21	400.21
0	20464	1390.21	300.21
0	20465	1390.21	200.21
0	20696	1400.21	1000.21
0	20697	1400.21	900.21
0	20698	1400.21	800.21
0	20699	1400.21	700.21
0	20700	1400.21	600.21
0	20701	1400.21	500.21
0	20702	1400.21	400.21
0	20703	1400.21	300.21
0	20704	1400.21	200.21
0	20935	1410.21	1000.21
0	20936	1410.21	900.21
0	20937	1410.21	800.21
0	20938	1410.21	700.21
0	20939	1410.21	600.21
0	20940	1410.21	500.21
0	20941	1410.21	400.21
0	20942	1410.21	300.21
0	20943	1410.21	200.21
0	21174	1420.21	1000.21
0	21175	1420.21	900.21
0	21176	1420.21	800.21
0	21177	1420.21	700.21
0	21178	1420.21	600.21
0	21179	1420.21	500.21
0	21180	1420.21	400.21
0	21181	1420.21	300.21
0	21182	1420.21	200.21
0	21413	1430.21	1000.21
0	21414	1430.21	900.21
0	21415	1430.21	800.21
0	21416	1430.21	700.21
0	21417	1430.21	600.21
0	21418	1430.21	500.21
0	21419	1430.21	400.21
0	21420	1430.21	300.21
0	21421	1430.21	200.21
0	22008	1431.21	1431.21
0	22009	1431.21	1421.21
0	22010	1431.21	1411.21
0	22011	1431.21	1401.21
0	22012	1431.21	1391.21
0	22013	1431.21	1381.21
0	22014	1431.21	1371.21
0	22015	1431.21	1361.21
0	22016	1431.21	1351.21
0	22017	1431.21	1341.21
0	22018	1431.21	1331.21
0	22019	1431.21	1321.21
0	22020	1431.21	1311.21
0	22021	1431.21	1301.21
0	22022	1431.21	1291.21
0	22023	1431.21	1281.21
0	22024	1431.21	1271.21
0	22025	1431.21	1261.21
0	22026	1431.21	1251.21
0	22027	1431.21	1241.21
0	22028	1431.21	1231.21
0	22029	1431.21	1221.21
0	22030	1431.21	1211.21
0	22031	1431.21	1201.21
0	22032	1431.21	1191.21
0	22033	1431.21	1181.21
0	22034	1431.21	1171.21
0	22035	1431.21	1161.21
0	22036	1431.21	1151.21
0	22037	1431.21	1141.21
0	22038	1431.21	1131.21
0	22039	1431.21	1121.21
0	22040	1431.21	1111.21
0	22041	1431.21	1101.21
0	22460	1440.21	1100.21
0	22461	1440.21	1000.21
0	22462	1440.21	900.21
0	22463	1440.21	800.21
0	22464	1440.21	700.21
0	22465	1440.21	600.21
0	22466	1440.21	500.21
0	22467	1440.21	400.21
0	22468	1440.21	300.21
0	22469	1440.21	200.21
0	22722	1450.21	1100.21
0	22723	1450.21	1000.21
0	22724	1450.21	900.21
0	22725	1450.21	800.21
0	22726	1450.21	700.21
0	22727	1450.21	600.21
0	22728	1450.21	500.21
0	22729	1450.21	400.21
0	22730	1450.21	300.21
0	22731	1450.21	200.21
0	22984	1460.21	1100.21
0	22985	1460.21	1000.21
0	22986	1460.21	900.21
0	22987	1460.21	800.21
0	22988	1460.21	700.21
0	22989	1460.21	600.21
0	22990	1460.21	500.21
0	22991	1460.21	400.21
0	22992	1460.21	300.21
0	22993	1460.21	200.21
0	23246	1470.21	1100.21
0	23247	1470.21	1000.21
0	23248	1470.21	900.21
0	23249	1470.21	800.21
0	23250	1470.21	700.21
0	23251	1470.21	600.21
0	23252	1470.21	500.21
0	23253	1470.21	400.21
0	23254	1470.21	300.21
0	23255	1470.21	200.21
0	23508	1480.21	1100.21
0	23509	1480.21	1000.21
0	23510	1480.21	900.21
0	23511	1480.21	800.21
0	23512	1480.21	700.21
0	23513	1480.21	600.21
0	23514	1480.21	500.21
0	23515	1480.21	400.21
0	23516	1480.21	300.21
0	23517	1480.21	200.21
0	23770	1490.21	1100.21
0	23771	1490.21	1000.21
0	23772	1490.21	900.21
0	23773	1490.21	800.21
0	23774	1490.21	700.21
0	23775	1490.21	600.21
0	23776	1490.21	500.21
0	23777	1490.21	400.21
0	23778	1490.21	300.21
0	23779	1490.21	200.21
0	24032	1500.21	1100.21
0	24033	1500.21	1000.21
0	24034	1500.21	900.21
0	24035	1500.21	800.21
0	24036	1500.21	700.21
0	24037	1500.21	600.21
0	24038	1500.21	500.21
0	24039	1500.21	400.21
0	24040	1500.21	300.21
0	24041	1500.21	200.21
0	24294	1510.21	1100.21
0	24295	1510.21	1000.21
0	24296	1510.21	900.21
0	24297	1510.21	800.21
0	24298	1510.21	700.21
0	24299	1510.21	600.21
0	24300	1510.21	500.21
0	24301	1510.21	400.21
0	24302	1510.21	300.21
0	24303	1510.21	200.21
0	24556	1520.21	1100.21
0	24557	1520.21	1000.21
0	24558	1520.21	900.21
0	24559	1520.21	800.21
0	24560	1520.21	700.21
0	24561	1520.21	600.21
0	24562	1520.21	500.21
0	24563	1520.21	400.21
0	24564	1520.21	300.21
0	24565	1520.21	200.21
0	24818	1530.21	1100.21
0	24819	1530.21	1000.21
0	24820	1530.21	900.21
0	24821	1530.21	800.21
0	24822	1530.21	700.21
0	24823	1530.21	600.21
0	24824	1530.21	500.21
0	24825	1530.21	400.21
0	24826	1530.21	300.21
0	24827	1530.21	200.21
0	25421	1531.21	1531.21
0	25422	1531.21	1521.21
0	25423	1531.21	1511.21
0	25424	1531.21	1501.21
0	25425	1531.21	1491.21
0	25426	1531.21	1481.21
0	25427	1531.21	1471.21
0	25428	1531.21	1461.21
0	25429	1531.21	1451.21
0	25430	1531.21	1441.21
0	25431	1531.21	1431.21
0	25432	1531.21	1421.21
0	25433	1531.21	1411.21
0	25434	1531.21	1401.21
0	25435	1531.21	1391.21
0	25436	1531.21	1381.21
0	25437	1531.21	1371.21
0	25438	1531.21	1361.21
0	25439	1531.21	1351.21
0	25440	1531.21	1341.21
0	25441	1531.21	1331.21
0	25442	1531.21	1321.21
0	25443	1531.21	1311.21
0	25444	1531.21	1301.21
0	25445	1531.21	1291.21
0	25446	1531.21	1281.21
0	25447	1531.21	1271.21
0	25448	1531.21	1261.21
0	25449	1531.21	1251.21
0	25450	1531.21	1241.21
0	25451	1531.21	1231.21
0	25452	1531.21	1221.21
0	25453	1531.21	1211.21
0	25454	1531.21	1201.21
0	25888	1540.21	1200.21
0	25889	1540.21	1100.21
0	25890	1540.21	1000.21
0	25891	1540.21	900.21
0	25892	1540.21	800.21
0	25893	1540.21	700.21
0	25894	1540.21	600.21
0	25895	1540.21	500.21
0	25896	1540.21	400.21
0	25897	1540.21	300.21
0	25898	1540.21	200.21
0	26173	1550.21	1200.21
0	26174	1550.21	1100.21
0	26175	1550.21	1000.21
0	26176	1550.21	900.21
0	26177	1550.21	800.21
0	26178	1550.21	700.21
0	26179	1550.21	600.21
0	26180	1550.21	500.21
0	26181	1550.21	400.21
0	26182	1550.21	300.21
0	26183	1550.21	200.21
0	26458	1560.21	1200.21
0	26459	1560.21	1100.21
0	26460	1560.21	1000.21
0	26461	1560.21	900.21
0	26462	1560.21	800.21
0	26463	1560.21	700.21
0	26464	1560.21	600.21
0	26465	1560.21	500.21
0	26466	1560.21	400.21
0	26467	1560.21	300.21
0	26468	1560.21	200.21
0	26743	1570.21	1200.21
0	26744	1570.21	1100.21
0	26745	1570.21	1000.21
0	26746	1570.21	900.21
0	26747	1570.21	800.21
0	26748	1570.21	700.21
0	26749	1570.21	600.21
0	26750	1570.21	500.21
0	26751	1570.21	400.21
0	26752	1570.21	300.21
0	26753	1570.21	200.21
0	27028	1580.21	1200.21
0	27029	1580.21	1100.21
0	27030	1580.21	1000.21
0	27031	1580.21	900.21
0	27032	1580.21	800.21
0	27033	1580.21	700.21
0	27034	1580.21	600.21
0	27035	1580.21	500.21
0	27036	1580.21	400.21
0	27037	1580.21	300.21
0	27038	1580.21	200.21
0	27313	1590.21	1200.21
0	27314	1590.21	1100.21
0	27315	1590.21	1000.21
0	27316	1590.21	900.21
0	27317	1590.21	800.21
0	27318	1590.21	700.21
0	27319	1590.21	600.21
0	27320	1590.21	500.21
0	27321	1590.21	400.21
0	27322	1590.21	300.21
0	27323	1590.21	200.21
0	27598	1600.21	1200.21
0	27599	1600.21	1100.21
0	27600	1600.21	1000.21
0	27601	1600.21	900.21
0	27602	1600.21	800.21
0	27603	1600.21	700.21
0	27604	1600.21	600.21
0	27605	1600.21	500.21
0	27606	1600.21	400.21
0	27607	1600.21	300.21
0	27608	1600.21	200.21
0	27883	1610.21	1200.21
0	27884	1610.21	1100.21
0	27885	1610.21	1000.21
0	27886	1610.21	900.21
0	27887	1610.21	800.21
0	27888	1610.21	700.21
0	27889	1610.21	600.21
0	27890	1610.21	500.21
0	27891	1610.21	400.21
0	27892	1610.21	300.21
0	27893	1610.21	200.21
0	28168	1620.21	1200.21
0	28169	1620.21	1100.21
0	28170	1620.21	1000.21
0	28171	1620.21	900.21
0	28172	1620.21	800.21
0	28173	1620.21	700.21
0	28174	1620.21	600.21
0	28175	1620.21	500.21
0	28176	1620.21	400.21
0	28177	1620.21	300.21
0	28178	1620.21	200.21
0	28453	1630.21	1200.21
0	28454	1630.21	1100.21
0	28455	1630.21	1000.21
0	28456	1630.21	900.21
0	28457	1630.21	800.21
0	28458	1630.21	700.21
0	28459	1630.21	600.21
0	28460	1630.21	500.21
0	28461	1630.21	400.21
0	28462	1630.21	300.21
0	28463	1630.21	200.21
0	29064	1631.21	1631.21
0	29065	1631.21	1621.21
0	29066	1631.21	1611.21
0	29067	1631.21	1601.21
0	29068	1631.21	1591.21
0	29069	1631.21	1581.21
0	29070	1631.21	1571.21
0	29071	1631.21	1561.21
0	29072	1631.21	1551.21
0	29073	1631.21	1541.21
0	29074	1631.21	1531.21
0	29075	1631.21	1521.21
0	29076	1631.21	1511.21
0	29077	1631.21	1501.21
0	29078	1631.21	1491.21
0	29079	1631.21	1481.21
0	29080	1631.21	1471.21
0	29081	1631.21	1461.21
0	29082	1631.21	1451.21
0	29083	1631.21	1441.21
0	29084	1631.21	1431.21
0	29085	1631.21	1421.21
0	29086	1631.21	1411.21
0	29087	1631.21	1401.21
0	29088	1631.21	1391.21
0	29089	1631.21	1381.21
0	29090	1631.21	1371.21
0	29091	1631.21	1361.21
0	29092	1631.21	1351.21
0	29093	1631.21	1341.21
0	29094	1631.21	1331.21
0	29095	1631.21	1321.21
0	29096	1631.21	1311.21
0	29097	1631.21	1301.21
0	29546	1640.21	1300.21
0	29547	1640.21	1200.21
0	29548	1640.21	1100.21
0	29549	1640.21	1000.21
0	29550	1640.21	900.21
0	29551	1640.21	800.21
0	29552	1640.21	700.21
0	29553	1640.21	600.21
0	29554	1640.21	500.21
0	29555	1640.21	400.21
0	29556	1640.21	300.21
0	29557	1640.21	200.21
0	29854	1650.21	1300.21
0	29855	1650.21	1200.21
0	29856	1650.21	1100.21
0	29857	1650.21	1000.21
0	29858	1650.21	900.21
0	29859	1650.21	800.21
0	29860	1650.21	700.21
0	29861	1650.21	600.21
0	29862	1650.21	500.21
0	29863	1650.21	400.21
0	29864	1650.21	300.21
0	29865	1650.21	200.21
0	30162	1660.21	1300.21
0	30163	1660.21	1200.21
0	30164	1660.21	1100.21
0	30165	1660.21	1000.21
0	30166	1660.21	900.21
0	30167	1660.21	800.21
0	30168	1660.21	700.21
0	30169	1660.21	600.21
0	30170	1660.21	500.21
0	30171	1660.21	400.21
0	30172	1660.21	300.21
0	30173	1660.21	200.21
0	30470	1670.21	1300.21
0	30471	1670.21	1200.21
0	30472	1670.21	1100.21
0	30473	1670.21	1000.21
0	30474	1670.21	900.21
0	30475	1670.21	800.21
0	30476	1670.21	700.21
0	30477	1670.21	600.21
0	30478	1670.21	500.21
0	30479	1670.21	400.21
0	30480	1670.21	300.21
0	30481	1670.21	200.21
0	30778	1680.21	1300.21
0	30779	1680.21	1200.21
0	30780	1680.21	1100.21
0	30781	1680.21	1000.21
0	30782	1680.21	900.21
0	30783	1680.21	800.21
0	30784	1680.21	700.21
0	30785	1680.21	600.21
0	30786	1680.21	500.21
0	30787	1680.21	400.21
0	30788	1680.21	300.21
0	30789	1680.21	200.21
0	31086	1690.21	1300.21
0	31087	1690.21	1200.21
0	31088	1690.21	1100.21
0	31089	1690.21	1000.21
0	31090	1690.21	900.21
0	31091	1690.21	800.21
0	31092	1690.21	700.21
0	31093	1690.21	600.21
0	31094	1690.21	500.21
0	31095	1690.21	400.21
0	31096	1690.21	300.21
0	31097	1690.21	200.21
0	31394	1700.21	1300.21
0	31395	1700.21	1200.21
0	31396	1700.21	1100.21
0	31397	1700.21	1000.21
0	31398	1700.21	900.21
0	31399	1700.21	800.21
0	31400	1700.21	700.21
0	31401	1700.21	600.21
0	31402	1700.21	500.21
0	31403	1700.21	400.21
0	31404	1700.21	300.21
0	31405	1700.21	200.21
0	31702	1710.21	1300.21
0	31703	1710.21	1200.21
0	31704	1710.21	1100.21
0	31705	1710.21	1000.21
0	31706	1710.21	900.21
0	31707	1710.21	800.21
0	31708	1710.21	700.21
0	31709	1710.21	600.21
0	31710	1710.21	500.21
0	31711	1710.21	400.21
0	31712	1710.21	300.21
0	31713	1710.21	200.21
0	32010	1720.21	1300.21
0	32011	1720.21	1200.21
0	32012	1720.21	1100.21
0	32013	1720.21	1000.21
0	32014	1720.21	900.21
0	32015	1720.21	800.21
0	32016	1720.21	700.21
0	32017	1720.21	600.21
0	32018	1720.21	500.21
0	32019	1720.21	400.21
0	32020	1720.21	300.21
0	32021	1720.21	200.21
0	32318	1730.21	1300.21
0	32319	1730.21	1200.21
0	32320	1730.21	1100.21
0	32321	1730.21	1000.21
0	32322	1730.21	900.21
0	32323	1730.21	800.21
0	32324	1730.21	700.21
0	32325	1730.21	600.21
0	32326	1730.21	500.21
0	32327	1730.21	400.21
0	32328	1730.21	300.21
0	32329	1730.21	200.21
0	32937	1731.21	1731.21
0	32938	1731.21	1721.21
0	32939	1731.21	1711.21
0	32940	1731.21	1701.21
0	32941	1731.21	1691.21
0	32942	1731.21	1681.21
0	32943	1731.21	1671.21
0	32944	1731.21	1661.21
0	32945	1731.21	1651.21
0	32946	1731.21	1641.21
0	32947	1731.21	1631.21
0	32948	1731.21	1621.21
0	32949	1731.21	1611.21
0	32950	1731.21	1601.21
0	32951	1731.21	1591.21
0	32952	1731.21	1581.21
0	32953	1731.21	1571.21
0	32954	1731.21	1561.21
0	32955	1731.21	1551.21
0	32956	1731.21	1541.21
0	32957	1731.21	1531.21
0	32958	1731.21	1521.21
0	32959	1731.21	1511.21
0	32960	1731.21	1501.21
0	32961	1731.21	1491.21
0	32962	1731.21	1481.21
0	32963	1731.21	1471.21
0	32964	1731.21	1461.21
0	32965	1731.21	1451.21
0	32966	1731.21	1441.21
0	32967	1731.21	1431.21
0	32968	1731.21	1421.21
0	32969	1731.21	1411.21
0	32970	1731.21	1401.21
0	33434	1740.21	1400.21
0	33435	1740.21	1300.21
0	33436	1740.21	1200.21
0	33437	1740.21	1100.21
0	33438	1740.21	1000.21
0	33439	1740.21	900.21
0	33440	1740.21	800.21
0	33441	1740.21	700.21
0	33442	1740.21	600.21
0	33443	1740.21	500.21
0	33444	1740.21	400.21
0	33445	1740.21	300.21
0	33446	1740.21	200.21
0	33765	1750.21	1400.21
0	33766	1750.21	1300.21
0	33767	1750.21	1200.21
0	33768	1750.21	1100.21
0	33769	1750.21	1000.21
0	33770	1750.21	900.21
0	33771	1750.21	800.21
0	33772	1750.21	700.21
0	33773	1750.21	600.21
0	33774	1750.21	500.21
0	33775	1750.21	400.21
0	33776	1750.21	300.21
0	33777	1750.21	200.21
0	34096	1760.21	1400.21
0	34097	1760.21	1300.21
0	34098	1760.21	1200.21
0	34099	1760.21	1100.21
0	34100	1760.21	1000.21
0	34101	1760.21	900.21
0	34102	1760.21	800.21
0	34103	1760.21	700.21
0	34104	1760.21	600.21
0	34105	1760.21	500.21
0	34106	1760.21	400.21
0	34107	1760.21	300.21
0	34108	1760.21	200.21
0	34427	1770.21	1400.21
0	34428	1770.21	1300.21
0	34429	1770.21	1200.21
0	34430	1770.21	1100.21
0	34431	1770.21	1000.21
0	34432	1770.21	900.21
0	34433	1770.21	800.21
0	34434	1770.21	700.21
0	34435	1770.21	600.21
0	34436	1770.21	500.21
0	34437	1770.21	400.21
0	34438	1770.21	300.21
0	34439	1770.21	200.21
0	34758	1780.21	1400.21
0	34759	1780.21	1300.21
0	34760	1780.21	1200.21
0	34761	1780.21	1100.21
0	34762	1780.21	1000.21
0	34763	1780.21	900.21
0	34764	1780.21	800.21
0	34765	1780.21	700.21
0	34766	1780.21	600.21
0	34767	1780.21	500.21
0	34768	1780.21	400.21
0	34769	1780.21	300.21
0	34770	1780.21	200.21
0	35089	1790.21	1400.21
0	35090	1790.21	1300.21
0	35091	1790.21	1200.21
0	35092	1790.21	1100.21
0	35093	1790.21	1000.21
0	35094	1790.21	900.21
0	35095	1790.21	800.21
0	35096	1790.21	700.21
0	35097	1790.21	600.21
0	35098	1790.21	500.21
0	35099	1790.21	400.21
0	35100	1790.21	300.21
0	35101	1790.21	200.21
0	35420	1800.21	1400.21
0	35421	1800.21	1300.21
0	35422	1800.21	1200.21
0	35423	1800.21	1100.21
0	35424	1800.21	1000.21
0	35425	1800.21	900.21
0	35426	1800.21	800.21
0	35427	1800.21	700.21
0	35428	1800.21	600.21
0	35429	1800.21	500.21
0	35430	1800.21	400.21
0	35431	1800.21	300.21
0	35432	1800.21	200.21
0	35751	1810.21	1400.21
0	35752	1810.21	1300.21
0	35753	1810.21	1200.21
0	35754	1810.21	1100.21
0	35755	1810.21	1000.21
0	35756	1810.21	900.21
0	35757	1810.21	800.21
0	35758	1810.21	700.21
0	35759	1810.21	600.21
0	35760	1810.21	500.21
0	35761	1810.21	400.21
0	35762	1810.21	300.21
0	35763	1810.21	200.21
0	36082	1820.21	1400.21
0	36083	1820.21	1300.21
0	36084	1820.21	1200.21
0	36085	1820.21	1100.21
0	36086	1820.21	1000.21
0	36087	1820.21	900.21
0	36088	1820.21	800.21
0	36089	1820.21	700.21
0	36090	1820.21	600.21
0	36091	1820.21	500.21
0	36092	1820.21	400.21
0	36093	1820.21	300.21
0	36094	1820.21	200.21
0	36413	1830.21	1400.21
0	36414	1830.21	1300.21
0	36415	1830.21	1200.21
0	36416	1830.21	1100.21
0	36417	1830.21	1000.21
0	36418	1830.21	900.21
0	36419	1830.21	800.21
0	36420	1830.21	700.21
0	36421	1830.21	600.21
0	36422	1830.21	500.21
0	36423	1830.21	400.21
0	36424	1830.21	300.21
0	36425	1830.21	200.21
0	37040	1831.21	1831.21
0	37041	1831.21	1821.21
0	37042	1831.21	1811.21
0	37043	1831.21	1801.21
0	37044	1831.21	1791.21
0	37045	1831.21	1781.21
0	37046	1831.21	1771.21
0	37047	1831.21	1761.21
0	37048	1831.21	1751.21
0	37049	1831.21	1741.21
0	37050	1831.21	1731.21
0	37051	1831.21	1721.21
0	37052	1831.21	1711.21
0	37053	1831.21	1701.21
0	37054	1831.21	1691.21
0	37055	1831.21	1681.21
0	37056	1831.21	1671.21
0	37057	1831.21	1661.21
0	37058	1831.21	1651.21
0	37059	1831.21	1641.21
0	37060	1831.21	1631.21
0	37061	1831.21	1621.21
0	37062	1831.21	1611.21
0	37063	1831.21	1601.21
0	37064	1831.21	1591.21
0	37065	1831.21	1581.21
0	37066	1831.21	1571.21
0	37067	1831.21	1561.21
0	37068	1831.21	1551.21
0	37069	1831.21	1541.21
0	37070	1831.21	1531.21
0	37071	1831.21	1521.21
0	37072	1831.21	1511.21
0	37073	1831.21	1501.21
0	37552	1840.21	1500.21
0	37553	1840.21	1400.21
0	37554	1840.21	1300.21
0	37555	1840.21	1200.21
0	37556	1840.21	1100.21
0	37557	1840.21	1000.21
0	37558	1840.21	900.21
0	37559	1840.21	800.21
0	37560	1840.21	700.21
0	37561	1840.21	600.21
0	37562	1840.21	500.21
0	37563	1840.21	400.21
0	37564	1840.21	300.21
0	37565	1840.21	200.21
0	37906	1850.21	1500.21
0	37907	1850.21	1400.21
0	37908	1850.21	1300.21
0	37909	1850.21	1200.21
0	37910	1850.21	1100.21
0	37911	1850.21	1000.21
0	37912	1850.21	900.21
0	37913	1850.21	800.21
0	37914	1850.21	700.21
0	37915	1850.21	600.21
0	37916	1850.21	500.21
0	37917	1850.21	400.21
0	37918	1850.21	300.21
0	37919	1850.21	200.21
0	38260	1860.21	1500.21
0	38261	1860.21	1400.21
0	38262	1860.21	1300.21
0	38263	1860.21	1200.21
0	38264	1860.21	1100.21
0	38265	1860.21	1000.21
0	38266	1860.21	900.21
0	38267	1860.21	800.21
0	38268	1860.21	700.21
0	38269	1860.21	600.21
0	38270	1860.21	500.21
0	38271	1860.21	400.21
0	38272	1860.21	300.21
0	38273	1860.21	200.21
0	38614	1870.21	1500.21
0	38615	1870.21	1400.21
0	38616	1870.21	1300.21
0	38617	1870.21	1200.21
0	38618	1870.21	1100.21
0	38619	1870.21	1000.21
0	38620	1870.21	900.21
0	38621	1870.21	800.21
0	38622	1870.21	700.21
0	38623	1870.21	600.21
0	38624	1870.21	500.21
0	38625	1870.21	400.21
0	38626	1870.21	300.21
0	38627	1870.21	200.21
0	38968	1880.21	1500.21
0	38969	1880.21	1400.21
0	38970	1880.21	1300.21
0	38971	1880.21	1200.21
0	38972	1880.21	1100.21
0	38973	1880.21	1000.21
0	38974	1880.21	900.21
0	38975	1880.21	800.21
0	38976	1880.21	700.21
0	38977	1880.21	600.21
0	38978	1880.21	500.21
0	38979	1880.21	400.21
0	38980	1880.21	300.21
0	38981	1880.21	200.21
0	39322	1890.21	1500.21
0	39323	1890.21	1400.21
0	39324	1890.21	1300.21
0	39325	1890.21	1200.21
0	39326	1890.21	1100.21
0	39327	1890.21	1000.21
0	39328	1890.21	900.21
0	39329	1890.21	800.21
0	39330	1890.21	700.21
0	39331	1890.21	600.21
0	39332	1890.21	500.21
0	39333	1890.21	400.21
0	39334	1890.21	300.21
0	39335	1890.21	200.21
0	39676	1900.21	1500.21
0	39677	1900.21	1400.21
0	39678	1900.21	1300.21
0	39679	1900.21	1200.21
0	39680	1900.21	1100.21
0	39681	1900.21	1000.21
0	39682	1900.21	900.21
0	39683	1900.21	800.21
0	39684	1900.21	700.21
0	39685	1900.21	600.21
0	39686	1900.21	500.21
0	39687	1900.21	400.21
0	39688	1900.21	300.21
0	39689	1900.21	200.21
0	40030	1910.21	1500.21
0	40031	1910.21	1400.21
0	40032	1910.21	1300.21
0	40033	1910.21	1200.21
0	40034	1910.21	1100.21
0	40035	1910.21	1000.21
0	40036	1910.21	900.21
0	40037	1910.21	800.21
0	40038	1910.21	700.21
0	40039	1910.21	600.21
0	40040	1910.21	500.21
0	40041	1910.21	400.21
0	40042	1910.21	300.21
0	40043	1910.21	200.21
0	40384	1920.21	1500.21
0	40385	1920.21	1400.21
0	40386	1920.21	1300.21
0	40387	1920.21	1200.21
0	40388	1920.21	1100.21
0	40389	1920.21	1000.21
0	40390	1920.21	900.21
0	40391	1920.21	800.21
0	40392	1920.21	700.21
0	40393	1920.21	600.21
0	40394	1920.21	500.21
0	40395	1920.21	400.21
0	40396	1920.21	300.21
0	40397	1920.21	200.21
0	40738	1930.21	1500.21
0	40739	1930.21	1400.21
0	40740	1930.21	1300.21
0	40741	1930.21	1200.21
0	40742	1930.21	1100.21
0	40743	1930.21	1000.21
0	40744	1930.21	900.21
0	40745	1930.21	800.21
0	40746	1930.21	700.21
0	40747	1930.21	600.21
0	40748	1930.21	500.21
0	40749	1930.21	400.21
0	40750	1930.21	300.21
0	40751	1930.21	200.21
0	41373	1931.21	1931.21
0	41374	1931.21	1921.21
0	41375	1931.21	1911.21
0	41376	1931.21	1901.21
0	41377	1931.21	1891.21
0	41378	1931.21	1881.21
0	41379	1931.21	1871.21
0	41380	1931.21	1861.21
0	41381	1931.21	1851.21
0	41382	1931.21	1841.21
0	41383	1931.21	1831.21
0	41384	1931.21	1821.21
0	41385	1931.21	1811.21
0	41386	1931.21	1801.21
0	41387	1931.21	1791.21
0	41388	1931.21	1781.21
0	41389	1931.21	1771.21
0	41390	1931.21	1761.21
0	41391	1931.21	1751.21
0	41392	1931.21	1741.21
0	41393	1931.21	1731.21
0	41394	1931.21	1721.21
0	41395	1931.21	1711.21
0	41396	1931.21	1701.21
0	41397	1931.21	1691.21
0	41398	1931.21	1681.21
0	41399	1931.21	1671.21
0	41400	1931.21	1661.21
0	41401	1931.21	1651.21
0	41402	1931.21	1641.21
0	41403	1931.21	1631.21
0	41404	1931.21	1621.21
0	41405	1931.21	1611.21
0	41406	1931.21	1601.21
0	41900	1940.21	1600.21
0	41901	1940.21	1500.21
0	41902	1940.21	1400.21
0	41903	1940.21	1300.21
0	41904	1940.21	1200.21
0	41905	1940.21	1100.21
0	41906	1940.21	1000.21
0	41907	1940.21	900.21
0	41908	1940.21	800.21
0	41909	1940.21	700.21
0	41910	1940.21	600.21
0	41911	1940.21	500.21
0	41912	1940.21	400.21
0	41913	1940.21	300.21
0	41914	1940.21	200.21
0	42277	1950.21	1600.21
0	42278	1950.21	1500.21
0	42279	1950.21	1400.21
0	42280	1950.21	1300.21
0	42281	1950.21	1200.21
0	42282	1950.21	1100.21
0	42283	1950.21	1000.21
0	42284	1950.21	900.21
0	42285	1950.21	800.21
0	42286	1950.21	700.21
0	42287	1950.21	600.21
0	42288	1950.21	500.21
0	42289	1950.21	400.21
0	42290	1950.21	300.21
0	42291	1950.21	200.21
0	42654	1960.21	1600.21
0	42655	1960.21	1500.21
0	42656	1960.21	1400.21
0	42657	1960.21	1300.21
0	42658	1960.21	1200.21
0	42659	1960.21	1100.21
0	42660	1960.21	1000.21
0	42661	1960.21	900.21
0	42662	1960.21	800.21
0	42663	1960.21	700.21
0	42664	1960.21	600.21
0	42665	1960.21	500.21
0	42666	1960.21	400.21
0	42667	1960.21	300.21
0	42668	1960.21	200.21
0	43031	1970.21	1600.21
0	43032	1970.21	1500.21
0	43033	1970.21	1400.21
0	43034	1970.21	1300.21
0	43035	1970.21	1200.21
0	43036	1970.21	1100.21
0	43037	1970.21	1000.21
0	43038	1970.21	900.21
0	43039	1970.21	800.21
0	43040	1970.21	700.21
0	43041	1970.21	600.21
0	43042	1970.21	500.21
0	43043	1970.21	400.21
0	43044	1970.21	300.21
0	43045	1970.21	200.21
0	43408	1980.21	1600.21
0	43409	1980.21	1500.21
0	43410	1980.21	1400.21
0	43411	1980.21	1300.21
0	43412	1980.21	1200.21
0	43413	1980.21	1100.21
0	43414	1980.21	1000.21
0	43415	1980.21	900.21
0	43416	1980.21	800.21
0	43417	1980.21	700.21
0	43418	1980.21	600.21
0	43419	1980.21	500.21
0	43420	1980.21	400.21
0	43421	1980.21	300.21
0	43422	1980.21	200.21
0	43785	1990.21	1600.21
0	43786	1990.21	1500.21
0	43787	1990.21	1400.21
0	43788	1990.21	1300.21
0	43789	1990.21	1200.21
0	43790	1990.21	1100.21
0	43791	1990.21	1000.21
0	43792	1990.21	900.21
0	43793	1990.21	800.21
0	43794	1990.21	700.21
0	43795	1990.21	600.21
0	43796	1990.21	500.21
0	43797	1990.21	400.21
0	43798	1990.21	300.21
0	43799	1990.21	200.21
0	44162	2000.21	1600.21
0	44163	2000.21	1500.21
0	44164	2000.21	1400.21
0	44165	2000.21	1300.21
0	44166	2000.21	1200.21
0	44167	2000.21	1100.21
0	44168	2000.21	1000.21
0	44169	2000.21	900.21
0	44170	2000.21	800.21
0	44171	2000.21	700.21
0	44172	2000.21	600.21
0	44173	2000.21	500.21
0	44174	2000.21	400.21
0	44175	2000.21	300.21
0	44176	2000.21	200.21
0	44539	2010.21	1600.21
0	44540	2010.21	1500.21
0	44541	2010.21	1400.21
0	44542	2010.21	1300.21
0	44543	2010.21	1200.21
0	44544	2010.21	1100.21
0	44545	2010.21	1000.21
0	44546	2010.21	900.21
0	44547	2010.21	800.21
0	44548	2010.21	700.21
0	44549	2010.21	600.21
0	44550	2010.21	500.21
0	44551	2010.21	400.21
0	44552	2010.21	300.21
0	44553	2010.21	200.21
0	44916	2020.21	1600.21
0	44917	2020.21	1500.21
0	44918	2020.21	1400.21
0	44919	2020.21	1300.21
0	44920	2020.21	1200.21
0	44921	2020.21	1100.21
0	44922	2020.21	1000.21
0	44923	2020.21	900.21
0	44924	2020.21	800.21
0	44925	2020.21	700.21
0	44926	2020.21	600.21
0	44927	2020.21	500.21
0	44928	2020.21	400.21
0	44929	2020.21	300.21
0	44930	2020.21	200.21
0	45293	2030.21	1600.21
0	45294	2030.21	1500.21
0	45295	2030.21	1400.21
0	45296	2030.21	1300.21
0	45297	2030.21	1200.21
0	45298	2030.21	1100.21
0	45299	2030.21	1000.21
0	45300	2030.21	900.21
0	45301	2030.21	800.21
0	45302	2030.21	700.21
0	45303	2030.21	600.21
0	45304	2030.21	500.21
0	45305	2030.21	400.21
0	45306	2030.21	300.21
0	45307	2030.21	200.21
0	45936	2031.21	2031.21
0	45937	2031.21	2021.21
0	45938	2031.21	2011.21
0	45939	2031.21	2001.21
0	45940	2031.21	1991.21
0	45941	2031.21	1981.21
0	45942	2031.21	1971.21
0	45943	2031.21	1961.21
0	45944	2031.21	1951.21
0	45945	2031.21	1941.21
0	45946	2031.21	1931.21
0	45947	2031.21	1921.21
0	45948	2031.21	1911.21
0	45949	2031.21	1901.21
0	45950	2031.21	1891.21
0	45951	2031.21	1881.21
0	45952	2031.21	1871.21
0	45953	2031.21	1861.21
0	45954	2031.21	1851.21
0	45955	2031.21	1841.21
0	45956	2031.21	1831.21
0	45957	2031.21	1821.21
0	45958	2031.21	1811.21
0	45959	2031.21	1801.21
0	45960	2031.21	1791.21
0	45961	2031.21	1781.21
0	45962	2031.21	1771.21
0	45963	2031.21	1761.21
0	45964	2031.21	1751.21
0	45965	2031.21	1741.21
0	45966	2031.21	1731.21
0	45967	2031.21	1721.21
0	45968	2031.21	1711.21
0	45969	2031.21	1701.21
0	46478	2040.21	1700.21
0	46479	2040.21	1600.21
0	46480	2040.21	1500.21
0	46481	2040.21	1400.21
0	46482	2040.21	1300.21
0	46483	2040.21	1200.21
0	46484	2040.21	1100.21
0	46485	2040.21	1000.21
0	46486	2040.21	900.21
0	46487	2040.21	800.21
0	46488	2040.21	700.21
0	46489	2040.21	600.21
0	46490	2040.21	500.21
0	46491	2040.21	400.21
0	46492	2040.21	300.21
0	46493	2040.21	200.21
0	46878	2050.21	1700.21
0	46879	2050.21	1600.21
0	46880	2050.21	1500.21
0	46881	2050.21	1400.21
0	46882	2050.21	1300.21
0	46883	2050.21	1200.21
0	46884	2050.21	1100.21
0	46885	2050.21	1000.21
0	46886	2050.21	900.21
0	46887	2050.21	800.21
0	46888	2050.21	700.21
0	46889	2050.21	600.21
0	46890	2050.21	500.21
0	46891	2050.21	400.21
0	46892	2050.21	300.21
0	46893	2050.21	200.21
0	47278	2060.21	1700.21
0	47279	2060.21	1600.21
0	47280	2060.21	1500.21
0	47281	2060.21	1400.21
0	47282	2060.21	1300.21
0	47283	2060.21	1200.21
0	47284	2060.21	1100.21
0	47285	2060.21	1000.21
0	47286	2060.21	900.21
0	47287	2060.21	800.21
0	47288	2060.21	700.21
0	47289	2060.21	600.21
0	47290	2060.21	500.21
0	47291	2060.21	400.21
0	47292	2060.21	300.21
0	47293	2060.21	200.21
0	47678	2070.21	1700.21
0	47679	2070.21	1600.21
0	47680	2070.21	1500.21
0	47681	2070.21	1400.21
0	47682	2070.21	1300.21
0	47683	2070.21	1200.21
0	47684	2070.21	1100.21
0	47685	2070.21	1000.21
0	47686	2070.21	900.21
0	47687	2070.21	800.21
0	47688	2070.21	700.21
0	47689	2070.21	600.21
0	47690	2070.21	500.21
0	47691	2070.21	400.21
0	47692	2070.21	300.21
0	47693	2070.21	200.21
0	48078	2080.21	1700.21
0	48079	2080.21	1600.21
0	48080	2080.21	1500.21
0	48081	2080.21	1400.21
0	48082	2080.21	1300.21
0	48083	2080.21	1200.21
0	48084	2080.21	1100.21
0	48085	2080.21	1000.21
0	48086	2080.21	900.21
0	48087	2080.21	800.21
0	48088	2080.21	700.21
0	48089	2080.21	600.21
0	48090	2080.21	500.21
0	48091	2080.21	400.21
0	48092	2080.21	300.21
0	48093	2080.21	200.21
0	48478	2090.21	1700.21
0	48479	2090.21	1600.21
0	48480	2090.21	1500.21
0	48481	2090.21	1400.21
0	48482	2090.21	1300.21
0	48483	2090.21	1200.21
0	48484	2090.21	1100.21
0	48485	2090.21	1000.21
0	48486	2090.21	900.21
0	48487	2090.21	800.21
0	48488	2090.21	700.21
0	48489	2090.21	600.21
0	48490	2090.21	500.21
0	48491	2090.21	400.21
0	48492	2090.21	300.21
0	48493	2090.21	200.21
0	48878	2100.21	1700.21
0	48879	2100.21	1600.21
0	48880	2100.21	1500.21
0	48881	2100.21	1400.21
0	48882	2100.21	1300.21
0	48883	2100.21	1200.21
0	48884	2100.21	1100.21
0	48885	2100.21	1000.21
0	48886	2100.21	900.21
0	48887	2100.21	800.21
0	48888	2100.21	700.21
0	48889	2100.21	600.21
0	48890	2100.21	500.21
0	48891	2100.21	400.21
0	48892	2100.21	300.21
0	48893	2100.21	200.21
0	49278	2110.21	1700.21
0	49279	2110.21	1600.21
0	49280	2110.21	1500.21
0	49281	2110.21	1400.21
0	49282	2110.21	1300.21
0	49283	2110.21	1200.21
0	49284	2110.21	1100.21
0	49285	2110.21	1000.21
0	49286	2110.21	900.21
0	49287	2110.21	800.21
0	49288	2110.21	700.21
0	49289	2110.21	600.21
0	49290	2110.21	500.21
0	49291	2110.21	400.21
0	49292	2110.21	300.21
0	49293	2110.21	200.21
0	49678	2120.21	1700.21
0	49679	2120.21	1600.21
0	49680	2120.21	1500.21
0	49681	2120.21	1400.21
0	49682	2120.21	1300.21
0	49683	2120.21	1200.21
0	49684	2120.21	1100.21
0	49685	2120.21	1000.21
0	49686	2120.21	900.21
0	49687	2120.21	800.21
0	49688	2120.21	700.21
0	49689	2120.21	600.21
0	49690	2120.21	500.21
0	49691	2120.21	400.21
0	49692	2120.21	300.21
0	49693	2120.21	200.21
0	50078	2130.21	1700.21
0	50079	2130.21	1600.21
0	50080	2130.21	1500.21
0	50081	2130.21	1400.21
0	50082	2130.21	1300.21
0	50083	2130.21	1200.21
0	50084	2130.21	1100.21
0	50085	2130.21	1000.21
0	50086	2130.21	900.21
0	50087	2130.21	800.21
0	50088	2130.21	700.21
0	50089	2130.21	600.21
0	50090	2130.21	500.21
0	50091	2130.21	400.21
0	50092	2130.21	300.21
0	50093	2130.21	200.21
0	50729	2131.21	2131.21
0	50730	2131.21	2121.21
0	50731	2131.21	2111.21
0	50732	2131.21	2101.21
0	50733	2131.21	2091.21
0	50734	2131.21	2081.21
0	50735	2131.21	2071.21
0	50736	2131.21	2061.21
0	50737	2131.21	2051.21
0	50738	2131.21	2041.21
0	50739	2131.21	2031.21
0	50740	2131.21	2021.21
0	50741	2131.21	2011.21
0	50742	2131.21	2001.21
0	50743	2131.21	1991.21
0	50744	2131.21	1981.21
0	50745	2131.21	1971.21
0	50746	2131.21	1961.21
0	50747	2131.21	1951.21
0	50748	2131.21	1941.21
0	50749	2131.21	1931.21
0	50750	2131.21	1921.21
0	50751	2131.21	1911.21
0	50752	2131.21	1901.21
0	50753	2131.21	1891.21
0	50754	2131.21	1881.21
0	50755	2131.21	1871.21
0	50756	2131.21	1861.21
0	50757	2131.21	1851.21
0	50758	2131.21	1841.21
0	50759	2131.21	1831.21
0	50760	2131.21	1821.21
0	50761	2131.21	1811.21
0	50762	2131.21	1801.21
0	51286	2140.21	1800.21
0	51287	2140.21	1700.21
0	51288	2140.21	1600.21
0	51289	2140.21	1500.21
0	51290	2140.21	1400.21
0	51291	2140.21	1300.21
0	51292	2140.21	1200.21
0	51293	2140.21	1100.21
0	51294	2140.21	1000.21
0	51295	2140.21	900.21
0	51296	2140.21	800.21
0	51297	2140.21	700.21
0	51298	2140.21	600.21
0	51299	2140.21	500.21
0	51300	2140.21	400.21
0	51301	2140.21	300.21
0	51302	2140.21	200.21
0	51709	2150.21	1800.21
0	51710	2150.21	1700.21
0	51711	2150.21	1600.21
0	51712	2150.21	1500.21
0	51713	2150.21	1400.21
0	51714	2150.21	1300.21
0	51715	2150.21	1200.21
0	51716	2150.21	1100.21
0	51717	2150.21	1000.21
0	51718	2150.21	900.21
0	51719	2150.21	800.21
0	51720	2150.21	700.21
0	51721	2150.21	600.21
0	51722	2150.21	500.21
0	51723	2150.21	400.21
0	51724	2150.21	300.21
0	51725	2150.21	200.21
0	52132	2160.21	1800.21
0	52133	2160.21	1700.21
0	52134	2160.21	1600.21
0	52135	2160.21	1500.21
0	52136	2160.21	1400.21
0	52137	2160.21	1300.21
0	52138	2160.21	1200.21
0	52139	2160.21	1100.21
0	52140	2160.21	1000.21
0	52141	2160.21	900.21
0	52142	2160.21	800.21
0	52143	2160.21	700.21
0	52144	2160.21	600.21
0	52145	2160.21	500.21
0	52146	2160.21	400.21
0	52147	2160.21	300.21
0	52148	2160.21	200.21
0	52555	2170.21	1800.21
0	52556	2170.21	1700.21
0	52557	2170.21	1600.21
0	52558	2170.21	1500.21
0	52559	2170.21	1400.21
0	52560	2170.21	1300.21
0	52561	2170.21	1200.21
0	52562	2170.21	1100.21
0	52563	2170.21	1000.21
0	52564	2170.21	900.21
0	52565	2170.21	800.21
0	52566	2170.21	700.21
0	52567	2170.21	600.21
0	52568	2170.21	500.21
0	52569	2170.21	400.21
0	52570	2170.21	300.21
0	52571	2170.21	200.21
0	52978	2180.21	1800.21
0	52979	2180.21	1700.21
0	52980	2180.21	1600.21
0	52981	2180.21	1500.21
0	52982	2180.21	1400.21
0	52983	2180.21	1300.21
0	52984	2180.21	1200.21
0	52985	2180.21	1100.21
0	52986	2180.21	1000.21
0	52987	2180.21	900.21
0	52988	2180.21	800.21
0	52989	2180.21	700.21
0	52990	2180.21	600.21
0	52991	2180.21	500.21
0	52992	2180.21	400.21
0	52993	2180.21	300.21
0	52994	2180.21	200.21
0	53401	2190.21	1800.21
0	53402	2190.21	1700.21
0	53403	2190.21	1600.21
0	53404	2190.21	1500.21
0	53405	2190.21	1400.21
0	53406	2190.21	1300.21
0	53407	2190.21	1200.21
0	53408	2190.21	1100.21
0	53409	2190.21	1000.21
0	53410	2190.21	900.21
0	53411	2190.21	800.21
0	53412	2190.21	700.21
0	53413	2190.21	600.21
0	53414	2190.21	500.21
0	53415	2190.21	400.21
0	53416	2190.21	300.21
0	53417	2190.21	200.21
0	53824	2200.21	1800.21
0	53825	2200.21	1700.21
0	53826	2200.21	1600.21
0	53827	2200.21	1500.21
0	53828	2200.21	1400.21
0	53829	2200.21	1300.21
0	53830	2200.21	1200.21
0	53831	2200.21	1100.21
0	53832	2200.21	1000.21
0	53833	2200.21	900.21
0	53834	2200.21	800.21
0	53835	2200.21	700.21
0	53836	2200.21	600.21
0	53837	2200.21	500.21
0	53838	2200.21	400.21
0	53839	2200.21	300.21
0	53840	2200.21	200.21
0	54247	2210.21	1800.21
0	54248	2210.21	1700.21
0	54249	2210.21	1600.21
0	54250	2210.21	1500.21
0	54251	2210.21	1400.21
0	54252	2210.21	1300.21
0	54253	2210.21	1200.21
0	54254	2210.21	1100.21
0	54255	2210.21	1000.21
0	54256	2210.21	900.21
0	54257	2210.21	800.21
0	54258	2210.21	700.21
0	54259	2210.21	600.21
0	54260	2210.21	500.21
0	54261	2210.21	400.21
0	54262	2210.21	300.21
0	54263	2210.21	200.21
0	54670	2220.21	1800.21
0	54671	2220.21	1700.21
0	54672	2220.21	1600.21
0	54673	2220.21	1500.21
0	54674	2220.21	1400.21
0	54675	2220.21	1300.21
0	54676	2220.21	1200.21
0	54677	2220.21	1100.21
0	54678	2220.21	1000.21
0	54679	2220.21	900.21
0	54680	2220.21	800.21
0	54681	2220.21	700.21
0	54682	2220.21	600.21
0	54683	2220.21	500.21
0	54684	2220.21	400.21
0	54685	2220.21	300.21
0	54686	2220.21	200.21
0	55093	2230.21	1800.21
0	55094	2230.21	1700.21
0	55095	2230.21	1600.21
0	55096	2230.21	1500.21
0	55097	2230.21	1400.21
0	55098	2230.21	1300.21
0	55099	2230.21	1200.21
0	55100	2230.21	1100.21
0	55101	2230.21	1000.21
0	55102	2230.21	900.21
0	55103	2230.21	800.21
0	55104	2230.21	700.21
0	55105	2230.21	600.21
0	55106	2230.21	500.21
0	55107	2230.21	400.21
0	55108	2230.21	300.21
0	55109	2230.21	200.21
0	55752	2231.21	2231.21
0	55753	2231.21	2221.21
0	55754	2231.21	2211.21
0	55755	2231.21	2201.21
0	55756	2231.21	2191.21
0	55757	2231.21	2181.21
0	55758	2231.21	2171.21
0	55759	2231.21	2161.21
0	55760	2231.21	2151.21
0	55761	2231.21	2141.21
0	55762	2231.21	2131.21
0	55763	2231.21	2121.21
0	55764	2231.21	2111.21
0	55765	2231.21	2101.21
0	55766	2231.21	2091.21
0	55767	2231.21	2081.21
0	55768	2231.21	2071.21
0	55769	2231.21	2061.21
0	55770	2231.21	2051.21
0	55771	2231.21	2041.21
0	55772	2231.21	2031.21
0	55773	2231.21	2021.21
0	55774	2231.21	2011.21
0	55775	2231.21	2001.21
0	55776	2231.21	1991.21
0	55777	2231.21	1981.21
0	55778	2231.21	1971.21
0	55779	2231.21	1961.21
0	55780	2231.21	1951.21
0	55781	2231.21	1941.21
0	55782	2231.21	1931.21
0	55783	2231.21	1921.21
0	55784	2231.21	1911.21
0	55785	2231.21	1901.21
0	56324	2240.21	1900.21
0	56325	2240.21	1800.21
0	56326	2240.21	1700.21
0	56327	2240.21	1600.21
0	56328	2240.21	1500.21
0	56329	2240.21	1400.21
0	56330	2240.21	1300.21
0	56331	2240.21	1200.21
0	56332	2240.21	1100.21
0	56333	2240.21	1000.21
0	56334	2240.21	900.21
0	56335	2240.21	800.21
0	56336	2240.21	700.21
0	56337	2240.21	600.21
0	56338	2240.21	500.21
0	56339	2240.21	400.21
0	56340	2240.21	300.21
0	56341	2240.21	200.21
0	56770	2250.21	1900.21
0	56771	2250.21	1800.21
0	56772	2250.21	1700.21
0	56773	2250.21	1600.21
0	56774	2250.21	1500.21
0	56775	2250.21	1400.21
0	56776	2250.21	1300.21
0	56777	2250.21	1200.21
0	56778	2250.21	1100.21
0	56779	2250.21	1000.21
0	56780	2250.21	900.21
0	56781	2250.21	800.21
0	56782	2250.21	700.21
0	56783	2250.21	600.21
0	56784	2250.21	500.21
0	56785	2250.21	400.21
0	56786	2250.21	300.21
0	56787	2250.21	200.21
0	57216	2260.21	1900.21
0	57217	2260.21	1800.21
0	57218	2260.21	1700.21
0	57219	2260.21	1600.21
0	57220	2260.21	1500.21
0	57221	2260.21	1400.21
0	57222	2260.21	1300.21
0	57223	2260.21	1200.21
0	57224	2260.21	1100.21
0	57225	2260.21	1000.21
0	57226	2260.21	900.21
0	57227	2260.21	800.21
0	57228	2260.21	700.21
0	57229	2260.21	600.21
0	57230	2260.21	500.21
0	57231	2260.21	400.21
0	57232	2260.21	300.21
0	57233	2260.21	200.21
0	57662	2270.21	1900.21
0	57663	2270.21	1800.21
0	57664	2270.21	1700.21
0	57665	2270.21	1600.21
0	57666	2270.21	1500.21
0	57667	2270.21	1400.21
0	57668	2270.21	1300.21
0	57669	2270.21	1200.21
0	57670	2270.21	1100.21
0	57671	2270.21	1000.21
0	57672	2270.21	900.21
0	57673	2270.21	800.21
0	57674	2270.21	700.21
0	57675	2270.21	600.21
0	57676	2270.21	500.21
0	57677	2270.21	400.21
0	57678	2270.21	300.21
0	57679	2270.21	200.21
0	58108	2280.21	1900.21
0	58109	2280.21	1800.21
0	58110	2280.21	1700.21
0	58111	2280.21	1600.21
0	58112	2280.21	1500.21
0	58113	2280.21	1400.21
0	58114	2280.21	1300.21
0	58115	2280.21	1200.21
0	58116	2280.21	1100.21
0	58117	2280.21	1000.21
0	58118	2280.21	900.21
0	58119	2280.21	800.21
0	58120	2280.21	700.21
0	58121	2280.21	600.21
0	58122	2280.21	500.21
0	58123	2280.21	400.21
0	58124	2280.21	300.21
0	58125	2280.21	200.21
0	58554	2290.21	1900.21
0	58555	2290.21	1800.21
0	58556	2290.21	1700.21
0	58557	2290.21	1600.21
0	58558	2290.21	1500.21
0	58559	2290.21	1400.21
0	58560	2290.21	1300.21
0	58561	2290.21	1200.21
0	58562	2290.21	1100.21
0	58563	2290.21	1000.21
0	58564	2290.21	900.21
0	58565	2290.21	800.21
0	58566	2290.21	700.21
0	58567	2290.21	600.21
0	58568	2290.21	500.21
0	58569	2290.21	400.21
0	58570	2290.21	300.21
0	58571	2290.21	200.21
0	59000	2300.21	1900.21
0	59001	2300.21	1800.21
0	59002	2300.21	1700.21
0	59003	2300.21	1600.21
0	59004	2300.21	1500.21
0	59005	2300.21	1400.21
0	59006	2300.21	1300.21
0	59007	2300.21	1200.21
0	59008	2300.21	1100.21
0	59009	2300.21	1000.21
0	59010	2300.21	900.21
0	59011	2300.21	800.21
0	59012	2300.21	700.21
0	59013	2300.21	600.21
0	59014	2300.21	500.21
0	59015	2300.21	400.21
0	59016	2300.21	300.21
0	59017	2300.21	200.21
0	59446	2310.21	1900.21
0	59447	2310.21	1800.21
0	59448	2310.21	1700.21
0	59449	2310.21	1600.21
0	59450	2310.21	1500.21
0	59451	2310.21	1400.21
0	59452	2310.21	1300.21
0	59453	2310.21	1200.21
0	59454	2310.21	1100.21
0	59455	2310.21	1000.21
0	59456	2310.21	900.21
0	59457	2310.21	800.21
0	59458	2310.21	700.21
0	59459	2310.21	600.21
0	59460	2310.21	500.21
0	59461	2310.21	400.21
0	59462	2310.21	300.21
0	59463	2310.21	200.21
0	59892	2320.21	1900.21
0	59893	2320.21	1800.21
0	59894	2320.21	1700.21
0	59895	2320.21	1600.21
0	59896	2320.21	1500.21
0	59897	2320.21	1400.21
0	59898	2320.21	1300.21
0	59899	2320.21	1200.21
0	59900	2320.21	1100.21
0	59901	2320.21	1000.21
0	59902	2320.21	900.21
0	59903	2320.21	800.21
0	59904	2320.21	700.21
0	59905	2320.21	600.21
0	59906	2320.21	500.21
0	59907	2320.21	400.21
0	59908	2320.21	300.21
0	59909	2320.21	200.21
0	60338	2330.21	1900.21
0	60339	2330.21	1800.21
0	60340	2330.21	1700.21
0	60341	2330.21	1600.21
0	60342	2330.21	1500.21
0	60343	2330.21	1400.21
0	60344	2330.21	1300.21
0	60345	2330.21	1200.21
0	60346	2330.21	1100.21
0	60347	2330.21	1000.21
0	60348	2330.21	900.21
0	60349	2330.21	800.21
0	60350	2330.21	700.21
0	60351	2330.21	600.21
0	60352	2330.21	500.21
0	60353	2330.21	400.21
0	60354	2330.21	300.21
0	60355	2330.21	200.21
0	61005	2331.21	2331.21
0	61006	2331.21	2321.21
0	61007	2331.21	2311.21
0	61008	2331.21	2301.21
0	61009	2331.21	2291.21
0	61010	2331.21	2281.21
0	61011	2331.21	2271.21
0	61012	2331.21	2261.21
0	61013	2331.21	2251.21
0	61014	2331.21	2241.21
0	61015	2331.21	2231.21
0	61016	2331.21	2221.21
0	61017	2331.21	2211.21
0	61018	2331.21	2201.21
0	61019	2331.21	2191.21
0	61020	2331.21	2181.21
0	61021	2331.21	2171.21
0	61022	2331.21	2161.21
0	61023	2331.21	2151.21
0	61024	2331.21	2141.21
0	61025	2331.21	2131.21
0	61026	2331.21	2121.21
0	61027	2331.21	2111.21
0	61028	2331.21	2101.21
0	61029	2331.21	2091.21
0	61030	2331.21	2081.21
0	61031	2331.21	2071.21
0	61032	2331.21	2061.21
0	61033	2331.21	2051.21
0	61034	2331.21	2041.21
0	61035	2331.21	2031.21
0	61036	2331.21	2021.21
0	61037	2331.21	2011.21
0	61038	2331.21	2001.21
0	61592	2340.21	2000.21
0	61593	2340.21	1900.21
0	61594	2340.21	1800.21
0	61595	2340.21	1700.21
0	61596	2340.21	1600.21
0	61597	2340.21	1500.21
0	61598	2340.21	1400.21
0	61599	2340.21	1300.21
0	61600	2340.21	1200.21
0	61601	2340.21	1100.21
0	61602	2340.21	1000.21
0	61603	2340.21	900.21
0	61604	2340.21	800.21
0	61605	2340.21	700.21
0	61606	2340.21	600.21
0	61607	2340.21	500.21
0	61608	2340.21	400.21
0	61609	2340.21	300.21
0	61610	2340.21	200.21
0	62061	2350.21	2000.21
0	62062	2350.21	1900.21
0	62063	2350.21	1800.21
0	62064	2350.21	1700.21
0	62065	2350.21	1600.21
0	62066	2350.21	1500.21
0	62067	2350.21	1400.21
0	62068	2350.21	1300.21
0	62069	2350.21	1200.21
0	62070	2350.21	1100.21
0	62071	2350.21	1000.21
0	62072	2350.21	900.21
0	62073	2350.21	800.21
0	62074	2350.21	700.21
0	62075	2350.21	600.21
0	62076	2350.21	500.21
0	62077	2350.21	400.21
0	62078	2350.21	300.21
0	62079	2350.21	200.21
0	62530	2360.21	2000.21
0	62531	2360.21	1900.21
0	62532	2360.21	1800.21
0	62533	2360.21	1700.21
0	62534	2360.21	1600.21
0	62535	2360.21	1500.21
0	62536	2360.21	1400.21
0	62537	2360.21	1300.21
0	62538	2360.21	1200.21
0	62539	2360.21	1100.21
0	62540	2360.21	1000.21
0	62541	2360.21	900.21
0	62542	2360.21	800.21
0	62543	2360.21	700.21
0	62544	2360.21	600.21
0	62545	2360.21	500.21
0	62546	2360.21	400.21
0	62547	2360.21	300.21
0	62548	2360.21	200.21
0	62999	2370.21	2000.21
0	63000	2370.21	1900.21
0	63001	2370.21	1800.21
0	63002	2370.21	1700.21
0	63003	2370.21	1600.21
0	63004	2370.21	1500.21
0	63005	2370.21	1400.21
0	63006	2370.21	1300.21
0	63007	2370.21	1200.21
0	63008	2370.21	1100.21
0	63009	2370.21	1000.21
0	63010	2370.21	900.21
0	63011	2370.21	800.21
0	63012	2370.21	700.21
0	63013	2370.21	600.21
0	63014	2370.21	500.21
0	63015	2370.21	400.21
0	63016	2370.21	300.21
0	63017	2370.21	200.21
0	63468	2380.21	2000.21
0	63469	2380.21	1900.21
0	63470	2380.21	1800.21
0	63471	2380.21	1700.21
0	63472	2380.21	1600.21
0	63473	2380.21	1500.21
0	63474	2380.21	1400.21
0	63475	2380.21	1300.21
0	63476	2380.21	1200.21
0	63477	2380.21	1100.21
0	63478	2380.21	1000.21
0	63479	2380.21	900.21
0	63480	2380.21	800.21
0	63481	2380.21	700.21
0	63482	2380.21	600.21
0	63483	2380.21	500.21
0	63484	2380.21	400.21
0	63485	2380.21	300.21
0	63486	2380.21	200.21
0	63937	2390.21	2000.21
0	63938	2390.21	1900.21
0	63939	2390.21	1800.21
0	63940	2390.21	1700.21
0	63941	2390.21	1600.21
0	63942	2390.21	1500.21
0	63943	2390.21	1400.21
0	63944	2390.21	1300.21
0	63945	2390.21	1200.21
0	63946	2390.21	1100.21
0	63947	2390.21	1000.21
0	63948	2390.21	900.21
0	63949	2390.21	800.21
0	63950	2390.21	700.21
0	63951	2390.21	600.21
0	63952	2390.21	500.21
0	63953	2390.21	400.21
0	63954	2390.21	300.21
0	63955	2390.21	200.21
0	64406	2400.21	2000.21
0	64407	2400.21	1900.21
0	64408	2400.21	1800.21
0	64409	2400.21	1700.21
0	64410	2400.21	1600.21
0	64411	2400.21	1500.21
0	64412	2400.21	1400.21
0	64413	2400.21	1300.21
0	64414	2400.21	1200.21
0	64415	2400.21	1100.21
0	64416	2400.21	1000.21
0	64417	2400.21	900.21
0	64418	2400.21	800.21
0	64419	2400.21	700.21
0	64420	2400.21	600.21
0	64421	2400.21	500.21
0	64422	2400.21	400.21
0	64423	2400.21	300.21
0	64424	2400.21	200.21
0	64875	2410.21	2000.21
0	64876	2410.21	1900.21
0	64877	2410.21	1800.21
0	64878	2410.21	1700.21
0	64879	2410.21	1600.21
0	64880	2410.21	1500.21
0	64881	2410.21	1400.21
0	64882	2410.21	1300.21
0	64883	2410.21	1200.21
0	64884	2410.21	1100.21
0	64885	2410.21	1000.21
0	64886	2410.21	900.21
0	64887	2410.21	800.21
0	64888	2410.21	700.21
0	64889	2410.21	600.21
0	64890	2410.21	500.21
0	64891	2410.21	400.21
0	64892	2410.21	300.21
0	64893	2410.21	200.21
0	65344	2420.21	2000.21
0	65345	2420.21	1900.21
0	65346	2420.21	1800.21
0	65347	2420.21	1700.21
0	65348	2420.21	1600.21
0	65349	2420.21	1500.21
0	65350	2420.21	1400.21
0	65351	2420.21	1300.21
0	65352	2420.21	1200.21
0	65353	2420.21	1100.21
0	65354	2420.21	1000.21
0	65355	2420.21	900.21
0	65356	2420.21	800.21
0	65357	2420.21	700.21
0	65358	2420.21	600.21
0	65359	2420.21	500.21
0	65360	2420.21	400.21
0	65361	2420.21	300.21
0	65362	2420.21	200.21
0	65813	2430.21	2000.21
0	65814	2430.21	1900.21
0	65815	2430.21	1800.21
0	65816	2430.21	1700.21
0	65817	2430.21	1600.21
0	65818	2430.21	1500.21
0	65819	2430.21	1400.21
0	65820	2430.21	1300.21
0	65821	2430.21	1200.21
0	65822	2430.21	1100.21
0	65823	2430.21	1000.21
0	65824	2430.21	900.21
0	65825	2430.21	800.21
0	65826	2430.21	700.21
0	65827	2430.21	600.21
0	65828	2430.21	500.21
0	65829	2430.21	400.21
0	65830	2430.21	300.21
0	65831	2430.21	200.21
0	66488	2431.21	2431.21
0	66489	2431.21	2421.21
0	66490	2431.21	2411.21
0	66491	2431.21	2401.21
0	66492	2431.21	2391.21
0	66493	2431.21	2381.21
0	66494	2431.21	2371.21
0	66495	2431.21	2361.21
0	66496	2431.21	2351.21
0	66497	2431.21	2341.21
0	66498	2431.21	2331.21
0	66499	2431.21	2321.21
0	66500	2431.21	2311.21
0	66501	2431.21	2301.21
0	66502	2431.21	2291.21
0	66503	2431.21	2281.21
0	66504	2431.21	2271.21
0	66505	2431.21	2261.21
0	66506	2431.21	2251.21
0	66507	2431.21	2241.21
0	66508	2431.21	2231.21
0	66509	2431.21	2221.21
0	66510	2431.21	2211.21
0	66511	2431.21	2201.21
0	66512	2431.21	2191.21
0	66513	2431.21	2181.21
0	66514	2431.21	2171.21
0	66515	2431.21	2161.21
0	66516	2431.21	2151.21
0	66517	2431.21	2141.21
0	66518	2431.21	2131.21
0	66519	2431.21	2121.21
0	66520	2431.21	2111.21
0	66521	2431.21	2101.21
0	67090	2440.21	2100.21
0	67091	2440.21	2000.21
0	67092	2440.21	1900.21
0	67093	2440.21	1800.21
0	67094	2440.21	1700.21
0	67095	2440.21	1600.21
0	67096	2440.21	1500.21
0	67097	2440.21	1400.21
0	67098	2440.21	1300.21
0	67099	2440.21	1200.21
0	67100	2440.21	1100.21
0	67101	2440.21	1000.21
0	67102	2440.21	900.21
0	67103	2440.21	800.21
0	67104	2440.21	700.21
0	67105	2440.21	600.21
0	67106	2440.21	500.21
0	67107	2440.21	400.21
0	67108	2440.21	300.21
0	67109	2440.21	200.21
0	67582	2450.21	2100.21
0	67583	2450.21	2000.21
0	67584	2450.21	1900.21
0	67585	2450.21	1800.21
0	67586	2450.21	1700.21
0	67587	2450.21	1600.21
0	67588	2450.21	1500.21
0	67589	2450.21	1400.21
0	67590	2450.21	1300.21
0	67591	2450.21	1200.21
0	67592	2450.21	1100.21
0	67593	2450.21	1000.21
0	67594	2450.21	900.21
0	67595	2450.21	800.21
0	67596	2450.21	700.21
0	67597	2450.21	600.21
0	67598	2450.21	500.21
0	67599	2450.21	400.21
0	67600	2450.21	300.21
0	67601	2450.21	200.21
0	68074	2460.21	2100.21
0	68075	2460.21	2000.21
0	68076	2460.21	1900.21
0	68077	2460.21	1800.21
0	68078	2460.21	1700.21
0	68079	2460.21	1600.21
0	68080	2460.21	1500.21
0	68081	2460.21	1400.21
0	68082	2460.21	1300.21
0	68083	2460.21	1200.21
0	68084	2460.21	1100.21
0	68085	2460.21	1000.21
0	68086	2460.21	900.21
0	68087	2460.21	800.21
0	68088	2460.21	700.21
0	68089	2460.21	600.21
0	68090	2460.21	500.21
0	68091	2460.21	400.21
0	68092	2460.21	300.21
0	68093	2460.21	200.21
0	68566	2470.21	2100.21
0	68567	2470.21	2000.21
0	68568	2470.21	1900.21
0	68569	2470.21	1800.21
0	68570	2470.21	1700.21
0	68571	2470.21	1600.21
0	68572	2470.21	1500.21
0	68573	2470.21	1400.21
0	68574	2470.21	1300.21
0	68575	2470.21	1200.21
0	68576	2470.21	1100.21
0	68577	2470.21	1000.21
0	68578	2470.21	900.21
0	68579	2470.21	800.21
0	68580	2470.21	700.21
0	68581	2470.21	600.21
0	68582	2470.21	500.21
0	68583	2470.21	400.21
0	68584	2470.21	300.21
0	68585	2470.21	200.21
0	69058	2480.21	2100.21
0	69059	2480.21	2000.21
0	69060	2480.21	1900.21
0	69061	2480.21	1800.21
0	69062	2480.21	1700.21
0	69063	2480.21	1600.21
0	69064	2480.21	1500.21
0	69065	2480.21	1400.21
0	69066	2480.21	1300.21
0	69067	2480.21	1200.21
0	69068	2480.21	1100.21
0	69069	2480.21	1000.21
0	69070	2480.21	900.21
0	69071	2480.21	800.21
0	69072	2480.21	700.21
0	69073	2480.21	600.21
0	69074	2480.21	500.21
0	69075	2480.21	400.21
0	69076	2480.21	300.21
0	69077	2480.21	200.21
0	69550	2490.21	2100.21
0	69551	2490.21	2000.21
0	69552	2490.21	1900.21
0	69553	2490.21	1800.21
0	69554	2490.21	1700.21
0	69555	2490.21	1600.21
0	69556	2490.21	1500.21
0	69557	2490.21	1400.21
0	69558	2490.21	1300.21
0	69559	2490.21	1200.21
0	69560	2490.21	1100.21
0	69561	2490.21	1000.21
0	69562	2490.21	900.21
0	69563	2490.21	800.21
0	69564	2490.21	700.21
0	69565	2490.21	600.21
0	69566	2490.21	500.21
0	69567	2490.21	400.21
0	69568	2490.21	300.21
0	69569	2490.21	200.21
0	70042	2500.21	2100.21
0	70043	2500.21	2000.21
0	70044	2500.21	1900.21
0	70045	2500.21	1800.21
0	70046	2500.21	1700.21
0	70047	2500.21	1600.21
0	70048	2500.21	1500.21
0	70049	2500.21	1400.21
0	70050	2500.21	1300.21
0	70051	2500.21	1200.21
0	70052	2500.21	1100.21
0	70053	2500.21	1000.21
0	70054	2500.21	900.21
0	70055	2500.21	800.21
0	70056	2500.21	700.21
0	70057	2500.21	600.21
0	70058	2500.21	500.21
0	70059	2500.21	400.21
0	70060	2500.21	300.21
0	70061	2500.21	200.21
0	70534	2510.21	2100.21
0	70535	2510.21	2000.21
0	70536	2510.21	1900.21
0	70537	2510.21	1800.21
0	70538	2510.21	1700.21
0	70539	2510.21	1600.21
0	70540	2510.21	1500.21
0	70541	2510.21	1400.21
0	70542	2510.21	1300.21
0	70543	2510.21	1200.21
0	70544	2510.21	1100.21
0	70545	2510.21	1000.21
0	70546	2510.21	900.21
0	70547	2510.21	800.21
0	70548	2510.21	700.21
0	70549	2510.21	600.21
0	70550	2510.21	500.21
0	70551	2510.21	400.21
0	70552	2510.21	300.21
0	70553	2510.21	200.21
0	71026	2520.21	2100.21
0	71027	2520.21	2000.21
0	71028	2520.21	1900.21
0	71029	2520.21	1800.21
0	71030	2520.21	1700.21
0	71031	2520.21	1600.21
0	71032	2520.21	1500.21
0	71033	2520.21	1400.21
0	71034	2520.21	1300.21
0	71035	2520.21	1200.21
0	71036	2520.21	1100.21
0	71037	2520.21	1000.21
0	71038	2520.21	900.21
0	71039	2520.21	800.21
0	71040	2520.21	700.21
0	71041	2520.21	600.21
0	71042	2520.21	500.21
0	71043	2520.21	400.21
0	71044	2520.21	300.21
0	71045	2520.21	200.21
0	71518	2530.21	2100.21
0	71519	2530.21	2000.21
0	71520	2530.21	1900.21
0	71521	2530.21	1800.21
0	71522	2530.21	1700.21
0	71523	2530.21	1600.21
0	71524	2530.21	1500.21
0	71525	2530.21	1400.21
0	71526	2530.21	1300.21
0	71527	2530.21	1200.21
0	71528	2530.21	1100.21
0	71529	2530.21	1000.21
0	71530	2530.21	900.21
0	71531	2530.21	800.21
0	71532	2530.21	700.21
0	71533	2530.21	600.21
0	71534	2530.21	500.21
0	71535	2530.21	400.21
0	71536	2530.21	300.21
0	71537	2530.21	200.21
0	72201	2531.21	2531.21
0	72202	2531.21	2521.21
0	72203	2531.21	2511.21
0	72204	2531.21	2501.21
0	72205	2531.21	2491.21
0	72206	2531.21	2481.21
0	72207	2531.21	2471.21
0	72208	2531.21	2461.21
0	72209	2531.21	2451.21
0	72210	2531.21	2441.21
0	72211	2531.21	2431.21
0	72212	2531.21	2421.21
0	72213	2531.21	2411.21
0	72214	2531.21	2401.21
0	72215	2531.21	2391.21
0	72216	2531.21	2381.21
0	72217	2531.21	2371.21
0	72218	2531.21	2361.21
0	72219	2531.21	2351.21
0	72220	2531.21	2341.21
0	72221	2531.21	2331.21
0	72222	2531.21	2321.21
0	72223	2531.21	2311.21
0	72224	2531.21	2301.21
0	72225	2531.21	2291.21
0	72226	2531.21	2281.21
0	72227	2531.21	2271.21
0	72228	2531.21	2261.21
0	72229	2531.21	2251.21
0	72230	2531.21	2241.21
0	72231	2531.21	2231.21
0	72232	2531.21	2221.21
0	72233	2531.21	2211.21
0	72234	2531.21	2201.21
0	72818	2540.21	2200.21
0	72819	2540.21	2100.21
0	72820	2540.21	2000.21
0	72821	2540.21	1900.21
0	72822	2540.21	1800.21
0	72823	2540.21	1700.21
0	72824	2540.21	1600.21
0	72825	2540.21	1500.21
0	72826	2540.21	1400.21
0	72827	2540.21	1300.21
0	72828	2540.21	1200.21
0	72829	2540.21	1100.21
0	72830	2540.21	1000.21
0	72831	2540.21	900.21
0	72832	2540.21	800.21
0	72833	2540.21	700.21
0	72834	2540.21	600.21
0	72835	2540.21	500.21
0	72836	2540.21	400.21
0	72837	2540.21	300.21
0	72838	2540.21	200.21
0	73333	2550.21	2200.21
0	73334	2550.21	2100.21
0	73335	2550.21	2000.21
0	73336	2550.21	1900.21
0	73337	2550.21	1800.21
0	73338	2550.21	1700.21
0	73339	2550.21	1600.21
0	73340	2550.21	1500.21
0	73341	2550.21	1400.21
0	73342	2550.21	1300.21
0	73343	2550.21	1200.21
0	73344	2550.21	1100.21
0	73345	2550.21	1000.21
0	73346	2550.21	900.21
0	73347	2550.21	800.21
0	73348	2550.21	700.21
0	73349	2550.21	600.21
0	73350	2550.21	500.21
0	73351	2550.21	400.21
0	73352	2550.21	300.21
0	73353	2550.21	200.21
0	73848	2560.21	2200.21
0	73849	2560.21	2100.21
0	73850	2560.21	2000.21
0	73851	2560.21	1900.21
0	73852	2560.21	1800.21
0	73853	2560.21	1700.21
0	73854	2560.21	1600.21
0	73855	2560.21	1500.21
0	73856	2560.21	1400.21
0	73857	2560.21	1300.21
0	73858	2560.21	1200.21
0	73859	2560.21	1100.21
0	73860	2560.21	1000.21
0	73861	2560.21	900.21
0	73862	2560.21	800.21
0	73863	2560.21	700.21
0	73864	2560.21	600.21
0	73865	2560.21	500.21
0	73866	2560.21	400.21
0	73867	2560.21	300.21
0	73868	2560.21	200.21
0	74363	2570.21	2200.21
0	74364	2570.21	2100.21
0	74365	2570.21	2000.21
0	74366	2570.21	1900.21
0	74367	2570.21	1800.21
0	74368	2570.21	1700.21
0	74369	2570.21	1600.21
0	74370	2570.21	1500.21
0	74371	2570.21	1400.21
0	74372	2570.21	1300.21
0	74373	2570.21	1200.21
0	74374	2570.21	1100.21
0	74375	2570.21	1000.21
0	74376	2570.21	900.21
0	74377	2570.21	800.21
0	74378	2570.21	700.21
0	74379	2570.21	600.21
0	74380	2570.21	500.21
0	74381	2570.21	400.21
0	74382	2570.21	300.21
0	74383	2570.21	200.21
0	74878	2580.21	2200.21
0	74879	2580.21	2100.21
0	74880	2580.21	2000.21
0	74881	2580.21	1900.21
0	74882	2580.21	1800.21
0	74883	2580.21	1700.21
0	74884	2580.21	1600.21
0	74885	2580.21	1500.21
0	74886	2580.21	1400.21
0	74887	2580.21	1300.21
0	74888	2580.21	1200.21
0	74889	2580.21	1100.21
0	74890	2580.21	1000.21
0	74891	2580.21	900.21
0	74892	2580.21	800.21
0	74893	2580.21	700.21
0	74894	2580.21	600.21
0	74895	2580.21	500.21
0	74896	2580.21	400.21
0	74897	2580.21	300.21
0	74898	2580.21	200.21
0	75393	2590.21	2200.21
0	75394	2590.21	2100.21
0	75395	2590.21	2000.21
0	75396	2590.21	1900.21
0	75397	2590.21	1800.21
0	75398	2590.21	1700.21
0	75399	2590.21	1600.21
0	75400	2590.21	1500.21
0	75401	2590.21	1400.21
0	75402	2590.21	1300.21
0	75403	2590.21	1200.21
0	75404	2590.21	1100.21
0	75405	2590.21	1000.21
0	75406	2590.21	900.21
0	75407	2590.21	800.21
0	75408	2590.21	700.21
0	75409	2590.21	600.21
0	75410	2590.21	500.21
0	75411	2590.21	400.21
0	75412	2590.21	300.21
0	75413	2590.21	200.21
0	75908	2600.21	2200.21
0	75909	2600.21	2100.21
0	75910	2600.21	2000.21
0	75911	2600.21	1900.21
0	75912	2600.21	1800.21
0	75913	2600.21	1700.21
0	75914	2600.21	1600.21
0	75915	2600.21	1500.21
0	75916	2600.21	1400.21
0	75917	2600.21	1300.21
0	75918	2600.21	1200.21
0	75919	2600.21	1100.21
0	75920	2600.21	1000.21
0	75921	2600.21	900.21
0	75922	2600.21	800.21
0	75923	2600.21	700.21
0	75924	2600.21	600.21
0	75925	2600.21	500.21
0	75926	2600.21	400.21
0	75927	2600.21	300.21
0	75928	2600.21	200.21
0	76423	2610.21	2200.21
0	76424	2610.21	2100.21
0	76425	2610.21	2000.21
0	76426	2610.21	1900.21
0	76427	2610.21	1800.21
0	76428	2610.21	1700.21
0	76429	2610.21	1600.21
0	76430	2610.21	1500.21
0	76431	2610.21	1400.21
0	76432	2610.21	1300.21
0	76433	2610.21	1200.21
0	76434	2610.21	1100.21
0	76435	2610.21	1000.21
0	76436	2610.21	900.21
0	76437	2610.21	800.21
0	76438	2610.21	700.21
0	76439	2610.21	600.21
0	76440	2610.21	500.21
0	76441	2610.21	400.21
0	76442	2610.21	300.21
0	76443	2610.21	200.21
0	76938	2620.21	2200.21
0	76939	2620.21	2100.21
0	76940	2620.21	2000.21
0	76941	2620.21	1900.21
0	76942	2620.21	1800.21
0	76943	2620.21	1700.21
0	76944	2620.21	1600.21
0	76945	2620.21	1500.21
0	76946	2620.21	1400.21
0	76947	2620.21	1300.21
0	76948	2620.21	1200.21
0	76949	2620.21	1100.21
0	76950	2620.21	1000.21
0	76951	2620.21	900.21
0	76952	2620.21	800.21
0	76953	2620.21	700.21
0	76954	2620.21	600.21
0	76955	2620.21	500.21
0	76956	2620.21	400.21
0	76957	2620.21	300.21
0	76958	2620.21	200.21
0	77453	2630.21	2200.21
0	77454	2630.21	2100.21
0	77455	2630.21	2000.21
0	77456	2630.21	1900.21
0	77457	2630.21	1800.21
0	77458	2630.21	1700.21
0	77459	2630.21	1600.21
0	77460	2630.21	1500.21
0	77461	2630.21	1400.21
0	77462	2630.21	1300.21
0	77463	2630.21	1200.21
0	77464	2630.21	1100.21
0	77465	2630.21	1000.21
0	77466	2630.21	900.21
0	77467	2630.21	800.21
0	77468	2630.21	700.21
0	77469	2630.21	600.21
0	77470	2630.21	500.21
0	77471	2630.21	400.21
0	77472	2630.21	300.21
0	77473	2630.21	200.21
0	78144	2631.21	2631.21
0	78145	2631.21	2621.21
0	78146	2631.21	2611.21
0	78147	2631.21	2601.21
0	78148	2631.21	2591.21
0	78149	2631.21	2581.21
0	78150	2631.21	2571.21
0	78151	2631.21	2561.21
0	78152	2631.21	2551.21
0	78153	2631.21	2541.21
0	78154	2631.21	2531.21
0	78155	2631.21	2521.21
0	78156	2631.21	2511.21
0	78157	2631.21	2501.21
0	78158	2631.21	2491.21
0	78159	2631.21	2481.21
0	78160	2631.21	2471.21
0	78161	2631.21	2461.21
0	78162	2631.21	2451.21
0	78163	2631.21	2441.21
0	78164	2631.21	2431.21
0	78165	2631.21	2421.21
0	78166	2631.21	2411.21
0	78167	2631.21	2401.21
0	78168	2631.21	2391.21
0	78169	2631.21	2381.21
0	78170	2631.21	2371.21
0	78171	2631.21	2361.21
0	78172	2631.21	2351.21
0	78173	2631.21	2341.21
0	78174	2631.21	2331.21
0	78175	2631.21	2321.21
0	78176	2631.21	2311.21
0	78177	2631.21	2301.21
0	78776	2640.21	2300.21
0	78777	2640.21	2200.21
0	78778	2640.21	2100.21
0	78779	2640.21	2000.21
0	78780	2640.21	1900.21
0	78781	2640.21	1800.21
0	78782	2640.21	1700.21
0	78783	2640.21	1600.21
0	78784	2640.21	1500.21
0	78785	2640.21	1400.21
0	78786	2640.21	1300.21
0	78787	2640.21	1200.21
0	78788	2640.21	1100.21
0	78789	2640.21	1000.21
0	78790	2640.21	900.21
0	78791	2640.21	800.21
0	78792	2640.21	700.21
0	78793	2640.21	600.21
0	78794	2640.21	500.21
0	78795	2640.21	400.21
0	78796	2640.21	300.21
0	78797	2640.21	200.21
0	79314	2650.21	2300.21
0	79315	2650.21	2200.21
0	79316	2650.21	2100.21
0	79317	2650.21	2000.21
0	79318	2650.21	1900.21
0	79319	2650.21	1800.21
0	79320	2650.21	1700.21
0	79321	2650.21	1600.21
0	79322	2650.21	1500.21
0	79323	2650.21	1400.21
0	79324	2650.21	1300.21
0	79325	2650.21	1200.21
0	79326	2650.21	1100.21
0	79327	2650.21	1000.21
0	79328	2650.21	900.21
0	79329	2650.21	800.21
0	79330	2650.21	700.21
0	79331	2650.21	600.21
0	79332	2650.21	500.21
0	79333	2650.21	400.21
0	79334	2650.21	300.21
0	79335	2650.21	200.21
0	79852	2660.21	2300.21
0	79853	2660.21	2200.21
0	79854	2660.21	2100.21
0	79855	2660.21	2000.21
0	79856	2660.21	1900.21
0	79857	2660.21	1800.21
0	79858	2660.21	1700.21
0	79859	2660.21	1600.21
0	79860	2660.21	1500.21
0	79861	2660.21	1400.21
0	79862	2660.21	1300.21
0	79863	2660.21	1200.21
0	79864	2660.21	1100.21
0	79865	2660.21	1000.21
0	79866	2660.21	900.21
0	79867	2660.21	800.21
0	79868	2660.21	700.21
0	79869	2660.21	600.21
0	79870	2660.21	500.21
0	79871	2660.21	400.21
0	79872	2660.21	300.21
0	79873	2660.21	200.21
0	80390	2670.21	2300.21
0	80391	2670.21	2200.21
0	80392	2670.21	2100.21
0	80393	2670.21	2000.21
0	80394	2670.21	1900.21
0	80395	2670.21	1800.21
0	80396	2670.21	1700.21
0	80397	2670.21	1600.21
0	80398	2670.21	1500.21
0	80399	2670.21	1400.21
0	80400	2670.21	1300.21
0	80401	2670.21	1200.21
0	80402	2670.21	1100.21
0	80403	2670.21	1000.21
0	80404	2670.21	900.21
0	80405	2670.21	800.21
0	80406	2670.21	700.21
0	80407	2670.21	600.21
0	80408	2670.21	500.21
0	80409	2670.21	400.21
0	80410	2670.21	300.21
0	80411	2670.21	200.21
0	80928	2680.21	2300.21
0	80929	2680.21	2200.21
0	80930	2680.21	2100.21
0	80931	2680.21	2000.21
0	80932	2680.21	1900.21
0	80933	2680.21	1800.21
0	80934	2680.21	1700.21
0	80935	2680.21	1600.21
0	80936	2680.21	1500.21
0	80937	2680.21	1400.21
0	80938	2680.21	1300.21
0	80939	2680.21	1200.21
0	80940	2680.21	1100.21
0	80941	2680.21	1000.21
0	80942	2680.21	900.21
0	80943	2680.21	800.21
0	80944	2680.21	700.21
0	80945	2680.21	600.21
0	80946	2680.21	500.21
0	80947	2680.21	400.21
0	80948	2680.21	300.21
0	80949	2680.21	200.21
0	81466	2690.21	2300.21
0	81467	2690.21	2200.21
0	81468	2690.21	2100.21
0	81469	2690.21	2000.21
0	81470	2690.21	1900.21
0	81471	2690.21	1800.21
0	81472	2690.21	1700.21
0	81473	2690.21	1600.21
0	81474	2690.21	1500.21
0	81475	2690.21	1400.21
0	81476	2690.21	1300.21
0	81477	2690.21	1200.21
0	81478	2690.21	1100.21
0	81479	2690.21	1000.21
0	81480	2690.21	900.21
0	81481	2690.21	800.21
0	81482	2690.21	700.21
0	81483	2690.21	600.21
0	81484	2690.21	500.21
0	81485	2690.21	400.21
0	81486	2690.21	300.21
0	81487	2690.21	200.21
0	82004	2700.21	2300.21
0	82005	2700.21	2200.21
0	82006	2700.21	2100.21
0	82007	2700.21	2000.21
0	82008	2700.21	1900.21
0	82009	2700.21	1800.21
0	82010	2700.21	1700.21
0	82011	2700.21	1600.21
0	82012	2700.21	1500.21
0	82013	2700.21	1400.21
0	82014	2700.21	1300.21
0	82015	2700.21	1200.21
0	82016	2700.21	1100.21
0	82017	2700.21	1000.21
0	82018	2700.21	900.21
0	82019	2700.21	800.21
0	82020	2700.21	700.21
0	82021	2700.21	600.21
0	82022	2700.21	500.21
0	82023	2700.21	400.21
0	82024	2700.21	300.21
0	82025	2700.21	200.21
0	82542	2710.21	2300.21
0	82543	2710.21	2200.21
0	82544	2710.21	2100.21
0	82545	2710.21	2000.21
0	82546	2710.21	1900.21
0	82547	2710.21	1800.21
0	82548	2710.21	1700.21
0	82549	2710.21	1600.21
0	82550	2710.21	1500.21
0	82551	2710.21	1400.21
0	82552	2710.21	1300.21
0	82553	2710.21	1200.21
0	82554	2710.21	1100.21
0	82555	2710.21	1000.21
0	82556	2710.21	900.21
0	82557	2710.21	800.21
0	82558	2710.21	700.21
0	82559	2710.21	600.21
0	82560	2710.21	500.21
0	82561	2710.21	400.21
0	82562	2710.21	300.21
0	82563	2710.21	200.21
0	83080	2720.21	2300.21
0	83081	2720.21	2200.21
0	83082	2720.21	2100.21
0	83083	2720.21	2000.21
0	83084	2720.21	1900.21
0	83085	2720.21	1800.21
0	83086	2720.21	1700.21
0	83087	2720.21	1600.21
0	83088	2720.21	1500.21
0	83089	2720.21	1400.21
0	83090	2720.21	1300.21
0	83091	2720.21	1200.21
0	83092	2720.21	1100.21
0	83093	2720.21	1000.21
0	83094	2720.21	900.21
0	83095	2720.21	800.21
0	83096	2720.21	700.21
0	83097	2720.21	600.21
0	83098	2720.21	500.21
0	83099	2720.21	400.21
0	83100	2720.21	300.21
0	83101	2720.21	200.21
0	83618	2730.21	2300.21
0	83619	2730.21	2200.21
0	83620	2730.21	2100.21
0	83621	2730.21	2000.21
0	83622	2730.21	1900.21
0	83623	2730.21	1800.21
0	83624	2730.21	1700.21
0	83625	2730.21	1600.21
0	83626	2730.21	1500.21
0	83627	2730.21	1400.21
0	83628	2730.21	1300.21
0	83629	2730.21	1200.21
0	83630	2730.21	1100.21
0	83631	2730.21	1000.21
0	83632	2730.21	900.21
0	83633	2730.21	800.21
0	83634	2730.21	700.21
0	83635	2730.21	600.21
0	83636	2730.21	500.21
0	83637	2730.21	400.21
0	83638	2730.21	300.21
0	83639	2730.21	200.21
0	84317	2731.21	2731.21
0	84318	2731.21	2721.21
0	84319	2731.21	2711.21
0	84320	2731.21	2701.21
0	84321	2731.21	2691.21
0	84322	2731.21	2681.21
0	84323	2731.21	2671.21
0	84324	2731.21	2661.21
0	84325	2731.21	2651.21
0	84326	2731.21	2641.21
0	84327	2731.21	2631.21
0	84328	2731.21	2621.21
0	84329	2731.21	2611.21
0	84330	2731.21	2601.21
0	84331	2731.21	2591.21
0	84332	2731.21	2581.21
0	84333	2731.21	2571.21
0	84334	2731.21	2561.21
0	84335	2731.21	2551.21
0	84336	2731.21	2541.21
0	84337	2731.21	2531.21
0	84338	2731.21	2521.21
0	84339	2731.21	2511.21
0	84340	2731.21	2501.21
0	84341	2731.21	2491.21
0	84342	2731.21	2481.21
0	84343	2731.21	2471.21
0	84344	2731.21	2461.21
0	84345	2731.21	2451.21
0	84346	2731.21	2441.21
0	84347	2731.21	2431.21
0	84348	2731.21	2421.21
0	84349	2731.21	2411.21
0	84350	2731.21	2401.21
0	84964	2740.21	2400.21
0	84965	2740.21	2300.21
0	84966	2740.21	2200.21
0	84967	2740.21	2100.21
0	84968	2740.21	2000.21
0	84969	2740.21	1900.21
0	84970	2740.21	1800.21
0	84971	2740.21	1700.21
0	84972	2740.21	1600.21
[...]
0	116593	3210.21	2200.21
0	116594	3210.21	2100.21
0	116595	3210.21	2000.21
0	116596	3210.21	1900.21
0	116597	3210.21	1800.21
0	116598	3210.21	1700.21
0	116599	3210.21	1600.21
0	116600	3210.21	1500.21
0	116601	3210.21	1400.21
0	116602	3210.21	1300.21
0	116603	3210.21	1200.21
0	116604	3210.21	1100.21
0	116605	3210.21	1000.21
0	116606	3210.21	900.21
0	116607	3210.21	800.21
0	116608	3210.21	700.21
0	116609	3210.21	600.21
0	116610	3210.21	500.21
0	116611	3210.21	400.21
0	116612	3210.21	300.21
0	116613	3210.21	200.21
0	117241	3220.21	2800.21
0	117242	3220.21	2700.21
0	117243	3220.21	2600.21
0	117244	3220.21	2500.21
0	117245	3220.21	2400.21
0	117246	3220.21	2300.21
0	117247	3220.21	2200.21
0	117248	3220.21	2100.21
0	117249	3220.21	2000.21
0	117250	3220.21	1900.21
0	117251	3220.21	1800.21
0	117252	3220.21	1700.21
0	117253	3220.21	1600.21
0	117254	3220.21	1500.21
0	117255	3220.21	1400.21
0	117256	3220.21	1300.21
0	117257	3220.21	1200.21
0	117258	3220.21	1100.21
0	117259	3220.21	1000.21
0	117260	3220.21	900.21
0	117261	3220.21	800.21
0	117262	3220.21	700.21
0	117263	3220.21	600.21
0	117264	3220.21	500.21
0	117265	3220.21	400.21
0	117266	3220.21	300.21
0	117267	3220.21	200.21
0	117893	3230.21	2800.21
0	117894	3230.21	2700.21
0	117895	3230.21	2600.21
0	117896	3230.21	2500.21
0	117897	3230.21	2400.21
0	117898	3230.21	2300.21
0	117899	3230.21	2200.21
0	117900	3230.21	2100.21
0	117901	3230.21	2000.21
0	117902	3230.21	1900.21
0	117903	3230.21	1800.21
0	117904	3230.21	1700.21
0	117905	3230.21	1600.21
0	117906	3230.21	1500.21
0	117907	3230.21	1400.21
0	117908	3230.21	1300.21
0	117909	3230.21	1200.21
0	117910	3230.21	1100.21
0	117911	3230.21	1000.21
0	117912	3230.21	900.21
0	117913	3230.21	800.21
0	117914	3230.21	700.21
0	117915	3230.21	600.21
0	117916	3230.21	500.21
0	117917	3230.21	400.21
0	117918	3230.21	300.21
0	117919	3230.21	200.21
0	118631	3231.21	3231.21
0	118632	3231.21	3221.21
0	118633	3231.21	3211.21
0	118634	3231.21	3201.21
0	118635	3231.21	3191.21
0	118636	3231.21	3181.21
0	118637	3231.21	3171.21
0	118638	3231.21	3161.21
0	118639	3231.21	3151.21
0	118640	3231.21	3141.21
0	118641	3231.21	3131.21
0	118642	3231.21	3121.21
0	118643	3231.21	3111.21
0	118644	3231.21	3101.21
0	118645	3231.21	3091.21
0	118646	3231.21	3081.21
0	118647	3231.21	3071.21
0	118648	3231.21	3061.21
0	118649	3231.21	3051.21
0	118650	3231.21	3041.21
0	118651	3231.21	3031.21
0	118652	3231.21	3021.21
0	118653	3231.21	3011.21
0	118654	3231.21	3001.21
0	118655	3231.21	2991.21
0	118656	3231.21	2981.21
0	118657	3231.21	2971.21
0	118658	3231.21	2961.21
0	118659	3231.21	2951.21
0	118660	3231.21	2941.21
0	118661	3231.21	2931.21
0	118662	3231.21	2921.21
0	118663	3231.21	2911.21
0	118664	3231.21	2901.21
0	119352	3240.21	2900.21
0	119353	3240.21	2800.21
0	119354	3240.21	2700.21
0	119355	3240.21	2600.21
0	119356	3240.21	2500.21
0	119357	3240.21	2400.21
0	119358	3240.21	2300.21
0	119359	3240.21	2200.21
0	119360	3240.21	2100.21
0	119361	3240.21	2000.21
0	119362	3240.21	1900.21
0	119363	3240.21	1800.21
0	119364	3240.21	1700.21
0	119365	3240.21	1600.21
0	119366	3240.21	1500.21
0	119367	3240.21	1400.21
0	119368	3240.21	1300.21
0	119369	3240.21	1200.21
0	119370	3240.21	1100.21
0	119371	3240.21	1000.21
0	119372	3240.21	900.21
0	119373	3240.21	800.21
0	119374	3240.21	700.21
0	119375	3240.21	600.21
0	119376	3240.21	500.21
0	119377	3240.21	400.21
0	119378	3240.21	300.21
0	119379	3240.21	200.21
0	120027	3250.21	2900.21
0	120028	3250.21	2800.21
0	120029	3250.21	2700.21
0	120030	3250.21	2600.21
0	120031	3250.21	2500.21
0	120032	3250.21	2400.21
0	120033	3250.21	2300.21
0	120034	3250.21	2200.21
0	120035	3250.21	2100.21
0	120036	3250.21	2000.21
0	120037	3250.21	1900.21
0	120038	3250.21	1800.21
0	120039	3250.21	1700.21
0	120040	3250.21	1600.21
0	120041	3250.21	1500.21
0	120042	3250.21	1400.21
0	120043	3250.21	1300.21
0	120044	3250.21	1200.21
0	120045	3250.21	1100.21
0	120046	3250.21	1000.21
0	120047	3250.21	900.21
0	120048	3250.21	800.21
0	120049	3250.21	700.21
0	120050	3250.21	600.21
0	120051	3250.21	500.21
0	120052	3250.21	400.21
0	120053	3250.21	300.21
0	120054	3250.21	200.21
0	120702	3260.21	2900.21
0	120703	3260.21	2800.21
0	120704	3260.21	2700.21
0	120705	3260.21	2600.21
0	120706	3260.21	2500.21
0	120707	3260.21	2400.21
0	120708	3260.21	2300.21
0	120709	3260.21	2200.21
0	120710	3260.21	2100.21
0	120711	3260.21	2000.21
0	120712	3260.21	1900.21
0	120713	3260.21	1800.21
0	120714	3260.21	1700.21
0	120715	3260.21	1600.21
0	120716	3260.21	1500.21
0	120717	3260.21	1400.21
0	120718	3260.21	1300.21
0	120719	3260.21	1200.21
0	120720	3260.21	1100.21
0	120721	3260.21	1000.21
0	120722	3260.21	900.21
0	120723	3260.21	800.21
0	120724	3260.21	700.21
0	120725	3260.21	600.21
0	120726	3260.21	500.21
0	120727	3260.21	400.21
0	120728	3260.21	300.21
0	120729	3260.21	200.21
0	121377	3270.21	2900.21
0	121378	3270.21	2800.21
0	121379	3270.21	2700.21
0	121380	3270.21	2600.21
0	121381	3270.21	2500.21
0	121382	3270.21	2400.21
0	121383	3270.21	2300.21
0	121384	3270.21	2200.21
0	121385	3270.21	2100.21
0	121386	3270.21	2000.21
0	121387	3270.21	1900.21
0	121388	3270.21	1800.21
0	121389	3270.21	1700.21
0	121390	3270.21	1600.21
0	121391	3270.21	1500.21
0	121392	3270.21	1400.21
0	121393	3270.21	1300.21
0	121394	3270.21	1200.21
0	121395	3270.21	1100.21
0	121396	3270.21	1000.21
0	121397	3270.21	900.21
0	121398	3270.21	800.21
0	121399	3270.21	700.21
0	121400	3270.21	600.21
0	121401	3270.21	500.21
0	121402	3270.21	400.21
0	121403	3270.21	300.21
0	121404	3270.21	200.21
0	122052	3280.21	2900.21
0	122053	3280.21	2800.21
0	122054	3280.21	2700.21
0	122055	3280.21	2600.21
0	122056	3280.21	2500.21
0	122057	3280.21	2400.21
0	122058	3280.21	2300.21
0	122059	3280.21	2200.21
0	122060	3280.21	2100.21
0	122061	3280.21	2000.21
0	122062	3280.21	1900.21
0	122063	3280.21	1800.21
0	122064	3280.21	1700.21
0	122065	3280.21	1600.21
0	122066	3280.21	1500.21
0	122067	3280.21	1400.21
0	122068	3280.21	1300.21
0	122069	3280.21	1200.21
0	122070	3280.21	1100.21
0	122071	3280.21	1000.21
0	122072	3280.21	900.21
0	122073	3280.21	800.21
0	122074	3280.21	700.21
0	122075	3280.21	600.21
0	122076	3280.21	500.21
0	122077	3280.21	400.21
0	122078	3280.21	300.21
0	122079	3280.21	200.21
0	122727	3290.21	2900.21
0	122728	3290.21	2800.21
0	122729	3290.21	2700.21
0	122730	3290.21	2600.21
0	122731	3290.21	2500.21
0	122732	3290.21	2400.21
0	122733	3290.21	2300.21
0	122734	3290.21	2200.21
0	122735	3290.21	2100.21
0	122736	3290.21	2000.21
0	122737	3290.21	1900.21
0	122738	3290.21	1800.21
0	122739	3290.21	1700.21
0	122740	3290.21	1600.21
0	122741	3290.21	1500.21
0	122742	3290.21	1400.21
0	122743	3290.21	1300.21
0	122744	3290.21	1200.21
0	122745	3290.21	1100.21
0	122746	3290.21	1000.21
0	122747	3290.21	900.21
0	122748	3290.21	800.21
0	122749	3290.21	700.21
0	122750	3290.21	600.21
0	122751	3290.21	500.21
0	122752	3290.21	400.21
0	122753	3290.21	300.21
0	122754	3290.21	200.21
0	123402	3300.21	2900.21
0	123403	3300.21	2800.21
0	123404	3300.21	2700.21
0	123405	3300.21	2600.21
0	123406	3300.21	2500.21
0	123407	3300.21	2400.21
0	123408	3300.21	2300.21
0	123409	3300.21	2200.21
0	123410	3300.21	2100.21
0	123411	3300.21	2000.21
0	123412	3300.21	1900.21
0	123413	3300.21	1800.21
0	123414	3300.21	1700.21
0	123415	3300.21	1600.21
0	123416	3300.21	1500.21
0	123417	3300.21	1400.21
0	123418	3300.21	1300.21
0	123419	3300.21	1200.21
0	123420	3300.21	1100.21
0	123421	3300.21	1000.21
0	123422	3300.21	900.21
0	123423	3300.21	800.21
0	123424	3300.21	700.21
0	123425	3300.21	600.21
0	123426	3300.21	500.21
0	123427	3300.21	400.21
0	123428	3300.21	300.21
0	123429	3300.21	200.21
0	124077	3310.21	2900.21
0	124078	3310.21	2800.21
0	124079	3310.21	2700.21
0	124080	3310.21	2600.21
0	124081	3310.21	2500.21
0	124082	3310.21	2400.21
0	124083	3310.21	2300.21
0	124084	3310.21	2200.21
0	124085	3310.21	2100.21
0	124086	3310.21	2000.21
0	124087	3310.21	1900.21
0	124088	3310.21	1800.21
0	124089	3310.21	1700.21
0	124090	3310.21	1600.21
0	124091	3310.21	1500.21
0	124092	3310.21	1400.21
0	124093	3310.21	1300.21
0	124094	3310.21	1200.21
0	124095	3310.21	1100.21
0	124096	3310.21	1000.21
0	124097	3310.21	900.21
0	124098	3310.21	800.21
0	124099	3310.21	700.21
0	124100	3310.21	600.21
0	124101	3310.21	500.21
0	124102	3310.21	400.21
0	124103	3310.21	300.21
0	124104	3310.21	200.21
0	124694	3320.21	2900.21
0	124695	3320.21	2800.21
0	124696	3320.21	2700.21
0	124697	3320.21	2600.21
0	124698	3320.21	2500.21
0	124699	3320.21	2400.21
0	124700	3320.21	2300.21
0	124701	3320.21	2200.21
0	124702	3320.21	2100.21
0	124703	3320.21	2000.21
0	124704	3320.21	1900.21
0	124705	3320.21	1800.21
0	124706	3320.21	1700.21
0	124707	3320.21	1600.21
0	124708	3320.21	1500.21
0	124709	3320.21	1400.21
0	124710	3320.21	1300.21
0	124711	3320.21	1200.21
0	124712	3320.21	1100.21
0	124713	3320.21	1000.21
0	124714	3320.21	900.21
0	124715	3320.21	800.21
0	124716	3320.21	700.21
0	124717	3320.21	600.21
0	124718	3320.21	500.21
0	124719	3320.21	400.21
0	124720	3320.21	300.21
0	124721	3320.21	200.21
0	125311	3330.21	2900.21
0	125312	3330.21	2800.21
0	125313	3330.21	2700.21
0	125314	3330.21	2600.21
0	125315	3330.21	2500.21
0	125316	3330.21	2400.21
0	125317	3330.21	2300.21
0	125318	3330.21	2200.21
0	125319	3330.21	2100.21
0	125320	3330.21	2000.21
0	125321	3330.21	1900.21
0	125322	3330.21	1800.21
0	125323	3330.21	1700.21
0	125324	3330.21	1600.21
0	125325	3330.21	1500.21
0	125326	3330.21	1400.21
0	125327	3330.21	1300.21
0	125328	3330.21	1200.21
0	125329	3330.21	1100.21
0	125330	3330.21	1000.21
0	125331	3330.21	900.21
0	125332	3330.21	800.21
0	125333	3330.21	700.21
0	125334	3330.21	600.21
0	125335	3330.21	500.21
0	125336	3330.21	400.21
0	125337	3330.21	300.21
0	125338	3330.21	200.21
0	125999	3331.21	3331.21
0	126000	3331.21	3321.21
0	126001	3331.21	3311.21
0	126002	3331.21	3301.21
0	126003	3331.21	3291.21
0	126004	3331.21	3281.21
0	126005	3331.21	3271.21
0	126006	3331.21	3261.21
0	126007	3331.21	3251.21
0	126008	3331.21	3241.21
0	126009	3331.21	3231.21
0	126010	3331.21	3221.21
0	126011	3331.21	3211.21
0	126012	3331.21	3201.21
0	126013	3331.21	3191.21
0	126014	3331.21	3181.21
0	126015	3331.21	3171.21
0	126016	3331.21	3161.21
0	126017	3331.21	3151.21
0	126018	3331.21	3141.21
0	126019	3331.21	3131.21
0	126020	3331.21	3121.21
0	126021	3331.21	3111.21
0	126022	3331.21	3101.21
0	126023	3331.21	3091.21
0	126024	3331.21	3081.21
0	126025	3331.21	3071.21
0	126026	3331.21	3061.21
0	126027	3331.21	3051.21
0	126028	3331.21	3041.21
0	126029	3331.21	3031.21
0	126030	3331.21	3021.21
0	126031	3331.21	3011.21
0	126032	3331.21	3001.21
0	126665	3340.21	3000.21
0	126666	3340.21	2900.21
0	126667	3340.21	2800.21
0	126668	3340.21	2700.21
0	126669	3340.21	2600.21
0	126670	3340.21	2500.21
0	126671	3340.21	2400.21
0	126672	3340.21	2300.21
0	126673	3340.21	2200.21
0	126674	3340.21	2100.21
0	126675	3340.21	2000.21
0	126676	3340.21	1900.21
0	126677	3340.21	1800.21
0	126678	3340.21	1700.21
0	126679	3340.21	1600.21
0	126680	3340.21	1500.21
0	126681	3340.21	1400.21
0	126682	3340.21	1300.21
0	126683	3340.21	1200.21
0	126684	3340.21	1100.21
0	126685	3340.21	1000.21
0	126686	3340.21	900.21
0	126687	3340.21	800.21
0	126688	3340.21	700.21
0	126689	3340.21	600.21
0	126690	3340.21	500.21
0	126691	3340.21	400.21
0	126692	3340.21	300.21
0	126693	3340.21	200.21
0	127303	3350.21	3000.21
0	127304	3350.21	2900.21
0	127305	3350.21	2800.21
0	127306	3350.21	2700.21
0	127307	3350.21	2600.21
0	127308	3350.21	2500.21
0	127309	3350.21	2400.21
0	127310	3350.21	2300.21
0	127311	3350.21	2200.21
0	127312	3350.21	2100.21
0	127313	3350.21	2000.21
0	127314	3350.21	1900.21
0	127315	3350.21	1800.21
0	127316	3350.21	1700.21
0	127317	3350.21	1600.21
0	127318	3350.21	1500.21
0	127319	3350.21	1400.21
0	127320	3350.21	1300.21
0	127321	3350.21	1200.21
0	127322	3350.21	1100.21
0	127323	3350.21	1000.21
0	127324	3350.21	900.21
0	127325	3350.21	800.21
0	127326	3350.21	700.21
0	127327	3350.21	600.21
0	127328	3350.21	500.21
0	127329	3350.21	400.21
0	127330	3350.21	300.21
0	127331	3350.21	200.21
0	127941	3360.21	3000.21
0	127942	3360.21	2900.21
0	127943	3360.21	2800.21
0	127944	3360.21	2700.21
0	127945	3360.21	2600.21
0	127946	3360.21	2500.21
0	127947	3360.21	2400.21
0	127948	3360.21	2300.21
0	127949	3360.21	2200.21
0	127950	3360.21	2100.21
0	127951	3360.21	2000.21
0	127952	3360.21	1900.21
0	127953	3360.21	1800.21
0	127954	3360.21	1700.21
0	127955	3360.21	1600.21
0	127956	3360.21	1500.21
0	127957	3360.21	1400.21
0	127958	3360.21	1300.21
0	127959	3360.21	1200.21
0	127960	3360.21	1100.21
0	127961	3360.21	1000.21
0	127962	3360.21	900.21
0	127963	3360.21	800.21
0	127964	3360.21	700.21
0	127965	3360.21	600.21
0	127966	3360.21	500.21
0	127967	3360.21	400.21
0	127968	3360.21	300.21
0	127969	3360.21	200.21
0	128579	3370.21	3000.21
0	128580	3370.21	2900.21
0	128581	3370.21	2800.21
0	128582	3370.21	2700.21
0	128583	3370.21	2600.21
0	128584	3370.21	2500.21
0	128585	3370.21	2400.21
0	128586	3370.21	2300.21
0	128587	3370.21	2200.21
0	128588	3370.21	2100.21
0	128589	3370.21	2000.21
0	128590	3370.21	1900.21
0	128591	3370.21	1800.21
0	128592	3370.21	1700.21
0	128593	3370.21	1600.21
0	128594	3370.21	1500.21
0	128595	3370.21	1400.21
0	128596	3370.21	1300.21
0	128597	3370.21	1200.21
0	128598	3370.21	1100.21
0	128599	3370.21	1000.21
0	128600	3370.21	900.21
0	128601	3370.21	800.21
0	128602	3370.21	700.21
0	128603	3370.21	600.21
0	128604	3370.21	500.21
0	128605	3370.21	400.21
0	128606	3370.21	300.21
0	128607	3370.21	200.21
0	129217	3380.21	3000.21
0	129218	3380.21	2900.21
0	129219	3380.21	2800.21
0	129220	3380.21	2700.21
0	129221	3380.21	2600.21
0	129222	3380.21	2500.21
0	129223	3380.21	2400.21
0	129224	3380.21	2300.21
0	129225	3380.21	2200.21
0	129226	3380.21	2100.21
0	129227	3380.21	2000.21
0	129228	3380.21	1900.21
0	129229	3380.21	1800.21
0	129230	3380.21	1700.21
0	129231	3380.21	1600.21
0	129232	3380.21	1500.21
0	129233	3380.21	1400.21
0	129234	3380.21	1300.21
0	129235	3380.21	1200.21
0	129236	3380.21	1100.21
0	129237	3380.21	1000.21
0	129238	3380.21	900.21
0	129239	3380.21	800.21
0	129240	3380.21	700.21
0	129241	3380.21	600.21
0	129242	3380.21	500.21
0	129243	3380.21	400.21
0	129244	3380.21	300.21
0	129245	3380.21	200.21
0	129855	3390.21	3000.21
0	129856	3390.21	2900.21
0	129857	3390.21	2800.21
0	129858	3390.21	2700.21
0	129859	3390.21	2600.21
0	129860	3390.21	2500.21
0	129861	3390.21	2400.21
0	129862	3390.21	2300.21
0	129863	3390.21	2200.21
0	129864	3390.21	2100.21
0	129865	3390.21	2000.21
0	129866	3390.21	1900.21
0	129867	3390.21	1800.21
0	129868	3390.21	1700.21
0	129869	3390.21	1600.21
0	129870	3390.21	1500.21
0	129871	3390.21	1400.21
0	129872	3390.21	1300.21
0	129873	3390.21	1200.21
0	129874	3390.21	1100.21
0	129875	3390.21	1000.21
0	129876	3390.21	900.21
0	129877	3390.21	800.21
0	129878	3390.21	700.21
0	129879	3390.21	600.21
0	129880	3390.21	500.21
0	129881	3390.21	400.21
0	129882	3390.21	300.21
0	129883	3390.21	200.21
0	130493	3400.21	3000.21
0	130494	3400.21	2900.21
0	130495	3400.21	2800.21
0	130496	3400.21	2700.21
0	130497	3400.21	2600.21
0	130498	3400.21	2500.21
0	130499	3400.21	2400.21
0	130500	3400.21	2300.21
0	130501	3400.21	2200.21
0	130502	3400.21	2100.21
0	130503	3400.21	2000.21
0	130504	3400.21	1900.21
0	130505	3400.21	1800.21
0	130506	3400.21	1700.21
0	130507	3400.21	1600.21
0	130508	3400.21	1500.21
0	130509	3400.21	1400.21
0	130510	3400.21	1300.21
0	130511	3400.21	1200.21
0	130512	3400.21	1100.21
0	130513	3400.21	1000.21
0	130514	3400.21	900.21
0	130515	3400.21	800.21
0	130516	3400.21	700.21
0	130517	3400.21	600.21
0	130518	3400.21	500.21
0	130519	3400.21	400.21
0	130520	3400.21	300.21
0	130521	3400.21	200.21
0	131131	3410.21	3000.21
0	131132	3410.21	2900.21
0	131133	3410.21	2800.21
0	131134	3410.21	2700.21
0	131135	3410.21	2600.21
0	131136	3410.21	2500.21
0	131137	3410.21	2400.21
0	131138	3410.21	2300.21
0	131139	3410.21	2200.21
0	131140	3410.21	2100.21
0	131141	3410.21	2000.21
0	131142	3410.21	1900.21
0	131143	3410.21	1800.21
0	131144	3410.21	1700.21
0	131145	3410.21	1600.21
0	131146	3410.21	1500.21
0	131147	3410.21	1400.21
0	131148	3410.21	1300.21
0	131149	3410.21	1200.21
0	131150	3410.21	1100.21
0	131151	3410.21	1000.21
0	131152	3410.21	900.21
0	131153	3410.21	800.21
0	131154	3410.21	700.21
0	131155	3410.21	600.21
0	131156	3410.21	500.21
0	131157	3410.21	400.21
0	131158	3410.21	300.21
0	131159	3410.21	200.21
0	131669	3420.21	3000.21
0	131670	3420.21	2900.21
0	131671	3420.21	2800.21
0	131672	3420.21	2700.21
0	131673	3420.21	2600.21
0	131674	3420.21	2500.21
0	131675	3420.21	2400.21
0	131676	3420.21	2300.21
0	131677	3420.21	2200.21
0	131678	3420.21	2100.21
0	131679	3420.21	2000.21
0	131680	3420.21	1900.21
0	131681	3420.21	1800.21
0	131682	3420.21	1700.21
0	131683	3420.21	1600.21
0	131684	3420.21	1500.21
0	131685	3420.21	1400.21
0	131686	3420.21	1300.21
0	131687	3420.21	1200.21
0	131688	3420.21	1100.21
0	131689	3420.21	1000.21
0	131690	3420.21	900.21
0	131691	3420.21	800.21
0	131692	3420.21	700.21
0	131693	3420.21	600.21
0	131694	3420.21	500.21
0	131695	3420.21	400.21
0	131696	3420.21	300.21
0	131697	3420.21	200.21
0	132204	3430.21	3000.21
0	132205	3430.21	2900.21
0	132206	3430.21	2800.21
0	132207	3430.21	2700.21
0	132208	3430.21	2600.21
0	132209	3430.21	2500.21
0	132210	3430.21	2400.21
0	132211	3430.21	2300.21
0	132212	3430.21	2200.21
0	132213	3430.21	2100.21
0	132214	3430.21	2000.21
0	132215	3430.21	1900.21
0	132216	3430.21	1800.21
0	132217	3430.21	1700.21
0	132218	3430.21	1600.21
0	132219	3430.21	1500.21
0	132220	3430.21	1400.21
0	132221	3430.21	1300.21
0	132222	3430.21	1200.21
0	132223	3430.21	1100.21
0	132224	3430.21	1000.21
0	132225	3430.21	900.21
0	132226	3430.21	800.21
0	132227	3430.21	700.21
0	132228	3430.21	600.21
0	132229	3430.21	500.21
0	132230	3430.21	400.21
0	132231	3430.21	300.21
0	132232	3430.21	200.21
0	132794	3431.21	3431.21
0	132795	3431.21	3421.21
0	132796	3431.21	3411.21
0	132797	3431.21	3401.21
0	132798	3431.21	3391.21
0	132799	3431.21	3381.21
0	132800	3431.21	3371.21
0	132801	3431.21	3361.21
0	132802	3431.21	3351.21
0	132803	3431.21	3341.21
0	132804	3431.21	3331.21
0	132805	3431.21	3321.21
0	132806	3431.21	3311.21
0	132807	3431.21	3301.21
0	132808	3431.21	3291.21
0	132809	3431.21	3281.21
0	132810	3431.21	3271.21
0	132811	3431.21	3261.21
0	132812	3431.21	3251.21
0	132813	3431.21	3241.21
0	132814	3431.21	3231.21
0	132815	3431.21	3221.21
0	132816	3431.21	3211.21
0	132817	3431.21	3201.21
0	132818	3431.21	3191.21
0	132819	3431.21	3181.21
0	132820	3431.21	3171.21
0	132821	3431.21	3161.21
0	132822	3431.21	3151.21
0	132823	3431.21	3141.21
0	132824	3431.21	3131.21
0	132825	3431.21	3121.21
0	132826	3431.21	3111.21
0	132827	3431.21	3101.21
0	133371	3440.21	3100.21
0	133372	3440.21	3000.21
0	133373	3440.21	2900.21
0	133374	3440.21	2800.21
0	133375	3440.21	2700.21
0	133376	3440.21	2600.21
0	133377	3440.21	2500.21
0	133378	3440.21	2400.21
0	133379	3440.21	2300.21
0	133380	3440.21	2200.21
0	133381	3440.21	2100.21
0	133382	3440.21	2000.21
0	133383	3440.21	1900.21
0	133384	3440.21	1800.21
0	133385	3440.21	1700.21
0	133386	3440.21	1600.21
0	133387	3440.21	1500.21
0	133388	3440.21	1400.21
0	133389	3440.21	1300.21
0	133390	3440.21	1200.21
0	133391	3440.21	1100.21
0	133392	3440.21	1000.21
0	133393	3440.21	900.21
0	133394	3440.21	800.21
0	133395	3440.21	700.21
0	133396	3440.21	600.21
0	133397	3440.21	500.21
0	133398	3440.21	400.21
0	133399	3440.21	300.21
0	133400	3440.21	200.21
0	133924	3450.21	3100.21
0	133925	3450.21	3000.21
0	133926	3450.21	2900.21
0	133927	3450.21	2800.21
0	133928	3450.21	2700.21
0	133929	3450.21	2600.21
0	133930	3450.21	2500.21
0	133931	3450.21	2400.21
0	133932	3450.21	2300.21
0	133933	3450.21	2200.21
0	133934	3450.21	2100.21
0	133935	3450.21	2000.21
0	133936	3450.21	1900.21
0	133937	3450.21	1800.21
0	133938	3450.21	1700.21
0	133939	3450.21	1600.21
0	133940	3450.21	1500.21
0	133941	3450.21	1400.21
0	133942	3450.21	1300.21
0	133943	3450.21	1200.21
0	133944	3450.21	1100.21
0	133945	3450.21	1000.21
0	133946	3450.21	900.21
0	133947	3450.21	800.21
0	133948	3450.21	700.21
0	133949	3450.21	600.21
0	133950	3450.21	500.21
0	133951	3450.21	400.21
0	133952	3450.21	300.21
0	133953	3450.21	200.21

