version 2
run General-0-20250114-08:43:08-33837
attr configname General
attr datetime 20250114-08:43:08
attr experiment General
attr inifile shaw.ini
attr iterationvars ""
attr iterationvarsf ""
attr measurement ""
attr network src.dtnsim
attr processid 33837
attr repetition 0
attr replication #0
attr resultdir results
attr runnumber 0
attr seedset 0
param dtnsim.central.contactsFile "\"contactPlan/Contacts.txt\""
param dtnsim.central.contactsFile_A "\"contactPlan/Contacts_A.txt\""
param dtnsim.central.contactsFile_B "\"contactPlan/Contacts_B.txt\""
param dtnsim.central.contactIdsToDelete_from_celestialA "\"1 3 5 17 36 42 56 77 86 94 97 104 108 112 115 116 117 118 128 131 134 142 156 160 162 166 173 174 183 185 188 201 203 215 226 230 233 238 252 255 258 261 262 278 297 301 309 310 321 322 330 345 353 354 358 370 377 380 381 382 388 396 408 422 427 445 462 465 472 475 476 477 478 483 484 485 504 519 520 524 529 532 537 547 548 556 558 559 563 571 582 595 596 600 602 603 613 615 617 621 642 650 663 665 675 680 689 697 701 705 707 708 719 721 723 727 739 760 770 771 772 773 777 791 796 803 806 817 818 821 826 830 832 834 838 843 854 859 875 877 882 883 884 889 907 915 924 930 938 939 948 961 965 967 977 984 991 994\""
param dtnsim.central.contactIdsToDelete_from_celestialB "\"8 10 11 25 27 30 32 51 64 68 70 75 79 83 99 102 109 121 132 144 152 153 163 169 171 176 181 186 189 224 225 235 240 251 263 290 293 302 331 344 351 359 363 364 366 368 371 375 379 387 403 405 407 413 424 429 430 434 443 444 447 455 459 463 468 474 479 493 495 496 502 507 516 517 530 541 544 552 554 570 575 588 594 597 599 610 611 614 619 622 624 644 647 648 649 667 674 686 709 711 722 733 735 743 745 747 753 755 756 764 767 787 790 797 798 808 814 829 831 835 836 839 841 847 851 858 861 871 876 878 892 893 902 909 914 918 931 954 963 969 976 979\""
param dtnsim.central.celestialA_nodes "\"1 2 3\""
param dtnsim.central.celestialB_nodes "\"4 5 6\""
param dtnsim.central.locallyfaultsAware true
param dtnsim.central.mode_two_celestial true
param dtnsim.nodesNumber 6
param dtnsim.node[1].icon "\"receiverdish\""
param dtnsim.node[2..5].icon "\"satellite\""
param dtnsim.node[6].icon "\"receiverdish\""
param dtnsim.node[*].dtn.routing "\"cgrModel350\""
param dtnsim.node[*].dtn.routingType "\"routeListType:allPaths-firstEnding,volumeAware:allContacts,extensionBlock:on,contactPlan:global\""
param dtnsim.node[1].app.enable true
param dtnsim.node[*].app.custodyTransfer true
param dtnsim.node[1].app.bundlesNumber "\"10000\""
param dtnsim.node[1].app.start "\"0\""
param dtnsim.node[1].app.destinationEid "\"6\""
param dtnsim.node[1].app.size "\"1500\""
param dtnsim.node[1].app.interval 1

vector 0 dtnsim.node[6].app appBundleReceivedDelayvec:vector ETV
attr interpolationmode none
attr source appBundleReceivedDelay
attr title "appBundleReceivedDelayvec, vector"
0	16204	325	325
0	16222	325	324
0	16242	325	323
0	16263	325	322
0	16283	325	321
0	16304	325	320
0	16324	325	319
0	16345	325	318
0	16365	325	317
0	16386	325	316
0	16406	325	315
0	16427	325	314
0	16447	325	313
0	16468	325	312
0	16488	325	311
0	16509	325	310
0	16529	325	309
0	16550	325	308
0	16570	325	307
0	16591	325	306
0	16611	325	305
0	16632	325	304
0	16652	325	303
0	16673	325	302
0	16693	325	301
0	16714	325	300
0	16734	325	299
0	16755	325	298
0	16775	325	297
0	16796	325	296
0	16816	325	295
0	16837	325	294
0	16857	325	293
0	16878	325	292
0	16898	325	291
0	16919	325	290
0	16939	325	289
0	16960	325	288
0	16980	325	287
0	17001	325	286
0	17021	325	285
0	17042	325	284
0	17062	325	283
0	17083	325	282
0	17103	325	281
0	17124	325	280
0	17144	325	279
0	17165	325	278
0	17185	325	277
0	17206	325	276
0	17226	325	275
0	17247	325	274
0	17267	325	273
0	17288	325	272
0	17308	325	271
0	17329	325	270
0	17349	325	269
0	17370	325	268
0	17390	325	267
0	17411	325	266
0	17431	325	265
0	17452	325	264
0	17472	325	263
0	17493	325	262
0	17513	325	261
0	17534	325	260
0	17554	325	259
0	17575	325	258
0	17595	325	257
0	17616	325	256
0	17636	325	255
0	17657	325	254
0	17677	325	253
0	17698	325	252
0	17718	325	251
0	17739	325	250
0	17759	325	249
0	17780	325	248
0	17800	325	247
0	17821	325	246
0	17841	325	245
0	17862	325	244
0	17882	325	243
0	17903	325	242
0	17923	325	241
0	17944	325	240
0	17964	325	239
0	17985	325	238
0	18005	325	237
0	18026	325	236
0	18046	325	235
0	18067	325	234
0	18087	325	233
0	18108	325	232
0	18128	325	231
0	18149	325	230
0	18169	325	229
0	18190	325	228
0	18210	325	227
0	18231	325	226
0	18251	325	225
0	18272	325	224
0	18292	325	223
0	18313	325	222
0	18333	325	221
0	18354	325	220
0	18374	325	219
0	18395	325	218
0	18415	325	217
0	18436	325	216
0	18456	325	215
0	18477	325	214
0	18497	325	213
0	18518	325	212
0	18538	325	211
0	18559	325	210
0	18579	325	209
0	18600	325	208
0	18620	325	207
0	18641	325	206
0	18661	325	205
0	18682	325	204
0	18702	325	203
0	18723	325	202
0	18743	325	201
0	18764	325	200
0	18784	325	199
0	18805	325	198
0	18825	325	197
0	18846	325	196
0	18866	325	195
0	18887	325	194
0	18907	325	193
0	18928	325	192
0	18948	325	191
0	18969	325	190
0	18989	325	189
0	19010	325	188
0	19030	325	187
0	19051	325	186
0	19071	325	185
0	19092	325	184
0	19112	325	183
0	19133	325	182
0	19153	325	181
0	19174	325	180
0	19194	325	179
0	19215	325	178
0	19235	325	177
0	19256	325	176
0	19276	325	175
0	19297	325	174
0	19317	325	173
0	19338	325	172
0	19358	325	171
0	19379	325	170
0	19399	325	169
0	19420	325	168
0	19440	325	167
0	19461	325	166
0	19481	325	165
0	19502	325	164
0	19522	325	163
0	19543	325	162
0	19563	325	161
0	19584	325	160
0	19604	325	159
0	19625	325	158
0	19645	325	157
0	19666	325	156
0	19686	325	155
0	19707	325	154
0	19727	325	153
0	19748	325	152
0	19768	325	151
0	19789	325	150
0	19809	325	149
0	19830	325	148
0	19850	325	147
0	19871	325	146
0	19891	325	145
0	19912	325	144
0	19932	325	143
0	19953	325	142
0	19973	325	141
0	19994	325	140
0	20014	325	139
0	20035	325	138
0	20055	325	137
0	20076	325	136
0	20096	325	135
0	20117	325	134
0	20137	325	133
0	20158	325	132
0	20178	325	131
0	20199	325	130
0	20219	325	129
0	20240	325	325
0	20260	325	324
0	20281	325	323
0	20301	325	322
0	20322	325	321
0	20342	325	320
0	20363	325	319
0	20383	325	318
0	20404	325	317
0	20424	325	316
0	20445	325	315
0	20465	325	314
0	20486	325	313
0	20506	325	312
0	20527	325	311
0	20547	325	310
0	20568	325	309
0	20588	325	308
0	20609	325	307
0	20629	325	306
0	20650	325	305
0	20670	325	304
0	20691	325	303
0	20711	325	302
0	20732	325	301
0	20752	325	300
0	20773	325	299
0	20793	325	298
0	20814	325	297
0	20834	325	296
0	20855	325	295
0	20875	325	294
0	20896	325	293
0	20916	325	292
0	20937	325	291
0	20957	325	290
0	20978	325	289
0	20998	325	288
0	21019	325	287
0	21039	325	286
0	21060	325	285
0	21080	325	284
0	21101	325	283
0	21121	325	282
0	21142	325	281
0	21162	325	280
0	21183	325	279
0	21203	325	278
0	21224	325	277
0	21244	325	276
0	21265	325	275
0	21285	325	274
0	21306	325	273
0	21326	325	272
0	21347	325	271
0	21367	325	270
0	21388	325	269
0	21408	325	268
0	21429	325	267
0	21449	325	266
0	21470	325	265
0	21490	325	264
0	21511	325	263
0	21531	325	262
0	21552	325	261
0	21572	325	260
0	21593	325	259
0	21613	325	258
0	21634	325	257
0	21654	325	256
0	21675	325	255
0	21695	325	254
0	21716	325	253
0	21736	325	252
0	21757	325	251
0	21777	325	250
0	21798	325	249
0	21818	325	248
0	21839	325	247
0	21859	325	246
0	21880	325	245
0	21900	325	244
0	21921	325	243
0	21941	325	242
0	21962	325	241
0	21982	325	240
0	22003	325	239
0	22023	325	238
0	22044	325	237
0	22064	325	236
0	22085	325	235
0	22105	325	234
0	22126	325	233
0	22146	325	232
0	22167	325	231
0	22187	325	230
0	22208	325	229
0	22228	325	228
0	22249	325	128
0	22269	325	227
0	22290	325	127
0	22310	325	226
0	22331	325	126
0	22351	325	225
0	22372	325	125
0	22392	325	224
0	22413	325	124
0	22433	325	223
0	22454	325	123
0	22474	325	222
0	22495	325	122
0	22515	325	221
0	22536	325	121
0	22556	325	220
0	22577	325	120
0	22597	325	219
0	22618	325	119
0	22638	325	218
0	22659	325	118
0	25568	375	267
0	25588	375	167
0	25606	375	266
0	25623	375	166
0	25640	375	265
0	25657	375	165
0	25674	375	264
0	25691	375	164
0	25708	375	263
0	25725	375	163
0	25742	375	262
0	25759	375	162
0	25776	375	261
0	25793	375	161
0	25810	375	260
0	25827	375	160
0	25844	375	259
0	25861	375	159
0	25878	375	258
0	25895	375	158
0	25912	375	257
0	25929	375	157
0	25946	375	256
0	25963	375	156
0	25980	375	255
0	25997	375	155
0	26014	375	254
0	26031	375	154
0	26048	375	253
0	26065	375	153
0	26082	375	252
0	26099	375	152
0	26116	375	251
0	26133	375	151
0	26150	375	250
0	26167	375	150
0	26184	375	249
0	26201	375	149
0	26218	375	248
0	26235	375	148
0	26252	375	247
0	26269	375	147
0	26286	375	246
0	26303	375	146
0	26320	375	245
0	26337	375	145
0	26354	375	244
0	26371	375	144
0	26388	375	243
0	26405	375	143
0	26422	375	242
0	26439	375	142
0	26456	375	241
0	26473	375	141
0	26490	375	240
0	26507	375	140
0	26524	375	239
0	26541	375	139
0	26558	375	238
0	26575	375	138
0	26592	375	237
0	26609	375	137
0	26626	375	236
0	26643	375	136
0	26660	375	235
0	26677	375	135
0	26694	375	234
0	26711	375	134
0	26728	375	233
0	26745	375	133
0	26762	375	132
0	26779	375	131
0	26796	375	130
0	26813	375	129
0	26830	375	128
0	26847	375	127
0	26864	375	126
0	26881	375	125
0	26898	375	124
0	26915	375	123
0	26932	375	122
0	26949	375	121
0	26966	375	120
0	26983	375	119
0	27000	375	118
0	27017	375	117
0	27034	375	116
0	27051	375	115
0	27068	375	114
0	27085	375	113
0	27102	375	112
0	27119	375	111
0	27136	375	110
0	27153	375	109
0	27170	375	108
0	27187	375	107
0	27204	375	106
0	27221	375	105
0	27238	375	104
0	27255	375	103
0	27272	375	102
0	27289	375	101
0	27306	375	100
0	27323	375	99
0	27340	375	98
0	27357	375	97
0	27374	375	96
0	27391	375	95
0	27408	375	94
0	27425	375	93
0	27442	375	92
0	27459	375	91
0	27476	375	90
0	27493	375	89
0	27510	375	88
0	27527	375	87
0	27544	375	86
0	27561	375	85
0	27578	375	84
0	27595	375	83
0	27612	375	82
0	27629	375	81
0	27646	375	80
0	27663	375	79
0	27680	375	78
0	27697	375	77
0	27714	375	76
0	27731	375	75
0	27748	375	74
0	27765	375	73
0	27782	375	72
0	27799	375	71
0	27816	375	70
0	27833	375	69
0	27850	375	68
0	27867	375	67
0	27884	375	66
0	27901	375	65
0	27918	375	64
0	27935	375	63
0	27952	375	62
0	27969	375	61
0	27986	375	60
0	28003	375	59
0	28020	375	58
0	28037	375	57
0	28054	375	56
0	28071	375	55
0	28088	375	54
0	28105	375	53
0	28122	375	52
0	28139	375	51
0	28156	375	50
0	28173	375	49
0	28190	375	48
0	28207	375	47
0	28224	375	46
0	28241	375	45
0	28258	375	44
0	28275	375	43
0	28292	375	42
0	28309	375	41
0	28326	375	40
0	28343	375	39
0	28360	375	38
0	28377	375	37
0	28394	375	36
0	28411	375	35
0	28428	375	34
0	28445	375	33
0	28462	375	32
0	28479	375	31
0	28496	375	30
0	28513	375	29
0	28530	375	28
0	28547	375	27
0	28564	375	26
0	28581	375	25
0	28598	375	24
0	28615	375	23
0	28632	375	22
0	28649	375	21
0	28666	375	20
0	28683	375	19
0	28700	375	18
0	28717	375	17
0	28734	375	16
0	28751	375	15
0	28768	375	14
0	28785	375	13
0	28802	375	12
0	28819	375	11
0	28836	375	10
0	28853	375	9
0	28870	375	8
0	28887	375	7
0	28904	375	6
0	28921	375	5
0	28938	375	4
0	28955	375	3
0	28972	375	2
0	28989	375	1
0	29024	376	1
0	29063	377	1
0	29103	378	1
0	29141	379	1
0	29179	380	1
0	29217	381	1
0	29255	382	1
0	29293	383	1
0	29331	384	1
0	29369	385	1
0	29407	386	1
0	29445	387	1
0	29483	388	1
0	29521	389	1
0	29561	390	1
0	29600	391	1
0	29639	392	1
0	29678	393	1
0	29717	394	1
0	29756	395	1
0	29795	396	1
0	29836	397	1
0	29873	398	1
0	29910	399	1
0	29947	400	1
0	29984	401	1
0	30021	402	1
0	30058	403	1
0	30095	404	1
0	30132	405	1
0	30169	406	1
0	30206	407	1
0	30243	408	1
0	30280	409	1
0	30319	410	1
0	30357	411	1
0	30395	412	1
0	30433	413	1
0	30471	414	1
0	30509	415	1
0	30547	416	1
0	30585	417	1
0	30623	418	1
0	30661	419	1
0	30699	420	1
0	30737	421	1
0	30775	422	1
0	30813	423	1
0	31167	424	1
0	34248	552	128
0	34259	552	127
0	34281	552	126
0	34300	552	125
0	34322	552	124
0	34341	552	123
0	34363	552	122
0	34382	552	121
0	34404	552	120
0	34423	552	119
0	34445	552	118
0	34464	552	117
0	34486	552	116
0	34505	552	115
0	34527	552	114
0	34546	552	113
0	34568	552	112
0	34587	552	111
0	34609	552	110
0	34628	552	109
0	34650	552	108
0	34669	552	107
0	34691	552	106
0	34710	552	105
0	34732	552	104
0	34751	552	103
0	34773	552	102
0	34792	552	101
0	34814	552	100
0	34833	552	99
0	34855	552	98
0	34874	552	97
0	34896	552	96
0	34915	552	95
0	34937	552	94
0	34956	552	93
0	34978	552	92
0	34997	552	91
0	35019	552	90
0	35038	552	89
0	44194	794	330
0	44201	794	329
0	44212	794	328
0	44230	794	327
0	44246	794	326
0	44264	794	325
0	44280	794	324
0	44298	794	323
0	44314	794	322
0	44332	794	321
0	44348	794	686
0	44366	794	586
0	44382	794	685
0	44400	794	585
0	44416	794	684
0	44434	794	584
0	44450	794	683
0	44468	794	583
0	44484	794	682
0	44502	794	582
0	44518	794	681
0	44536	794	581
0	44552	794	680
0	44570	794	580
0	44586	794	679
0	44604	794	579
0	44620	794	678
0	44638	794	578
0	44654	794	677
0	44672	794	577
0	44688	794	676
0	44706	794	576
0	44722	794	675
0	44740	794	575
0	44756	794	674
0	44774	794	574
0	44790	794	673
0	44808	794	573
0	44824	794	672
0	44842	794	572
0	44858	794	671
0	44876	794	571
0	44892	794	670
0	44910	794	570
0	44926	794	669
0	44944	794	569
0	44960	794	668
0	44978	794	568
0	44994	794	667
0	45012	794	567
0	45028	794	666
0	45046	794	566
0	45062	794	665
0	45080	794	565
0	45096	794	664
0	45114	794	564
0	45130	794	663
0	45148	794	563
0	45164	794	662
0	45182	794	562
0	45198	794	661
0	45216	794	561
0	45232	794	660
0	45250	794	560
0	45266	794	659
0	45284	794	559
0	45300	794	658
0	45318	794	558
0	45334	794	657
0	45352	794	557
0	45368	794	656
0	45386	794	556
0	45402	794	655
0	45420	794	555
0	45436	794	654
0	45454	794	554
0	45470	794	653
0	45488	794	553
0	45504	794	652
0	45522	794	552
0	45538	794	551
0	45556	794	550
0	45572	794	549
0	45590	794	548
0	45606	794	547
0	45624	794	546
0	45640	794	545
0	45658	794	544
0	45674	794	543
0	45692	794	542
0	45708	794	541
0	45726	794	540
0	45742	794	539
0	45760	794	538
0	45776	794	537
0	45794	794	536
0	45810	794	535
0	45828	794	534
0	45844	794	533
0	45862	794	532
0	45878	794	531
0	45896	794	530
0	45912	794	529
0	45930	794	528
0	45946	794	527
0	45964	794	526
0	45980	794	525
0	45998	794	524
0	46014	794	523
0	46032	794	522
0	46048	794	521
0	46066	794	520
0	46082	794	519
0	46100	794	518
0	46116	794	517
0	46134	794	516
0	46150	794	515
0	46168	794	514
0	46184	794	513
0	46202	794	512
0	46218	794	511
0	46236	794	510
0	46252	794	509
0	46270	794	508
0	46286	794	507
0	46304	794	506
0	46320	794	505
0	46338	794	504
0	46354	794	503
0	46372	794	502
0	46388	794	501
0	46406	794	500
0	46422	794	499
0	46440	794	498
0	46456	794	497
0	46474	794	496
0	46490	794	495
0	46508	794	494
0	46524	794	493
0	46542	794	492
0	46558	794	491
0	46576	794	490
0	46592	794	489
0	46610	794	488
0	46626	794	487
0	46644	794	486
0	46660	794	485
0	46678	794	484
0	46694	794	483
0	46712	794	482
0	46728	794	481
0	46746	794	480
0	46762	794	479
0	46780	794	478
0	46796	794	477
0	46814	794	476
0	46830	794	475
0	46848	794	474
0	46864	794	473
0	46882	794	472
0	46898	794	471
0	46916	794	470
0	46932	794	469
0	46950	794	468
0	46966	794	467
0	46984	794	466
0	47000	794	465
0	47018	794	464
0	47034	794	463
0	47052	794	462
0	47068	794	461
0	47086	794	460
0	47102	794	459
0	47120	794	458
0	47136	794	457
0	47154	794	456
0	47170	794	455
0	47188	794	454
0	47204	794	453
0	47222	794	452
0	47238	794	451
0	47256	794	450
0	47272	794	449
0	47290	794	448
0	47306	794	447
0	47324	794	446
0	47340	794	445
0	47358	794	444
0	47374	794	443
0	47392	794	442
0	47408	794	441
0	47426	794	440
0	47442	794	439
0	47460	794	438
0	47476	794	437
0	47494	794	436
0	47510	794	435
0	47528	794	434
0	47544	794	433
0	47562	794	432
0	47578	794	431
0	47596	794	430
0	47612	794	429
0	47630	794	428
0	47646	794	427
0	47664	794	426
0	47680	794	425
0	47698	794	424
0	47714	794	423
0	47732	794	422
0	47748	794	421
0	47766	794	420
0	47782	794	320
0	47800	794	419
0	47816	794	319
0	47834	794	418
0	47850	794	318
0	47868	794	417
0	47884	794	317
0	47902	794	416
0	47918	794	316
0	47936	794	415
0	47952	794	315
0	47970	794	414
0	47986	794	314
0	48004	794	413
0	48020	794	313
0	48038	794	412
0	48054	794	312
0	48072	794	411
0	48088	794	311
0	48106	794	410
0	48122	794	310
0	48140	794	409
0	48156	794	309
0	48174	794	408
0	48190	794	308
0	48208	794	407
0	48224	794	307
0	48242	794	406
0	48258	794	306
0	48276	794	405
0	48292	794	305
0	48310	794	404
0	48326	794	304
0	48344	794	403
0	48360	794	303
0	48378	794	402
0	48394	794	302
0	48412	794	401
0	48428	794	301
0	48446	794	400
0	48462	794	300
0	48480	794	399
0	48496	794	299
0	48514	794	398
0	48530	794	298
0	48548	794	397
0	48564	794	297
0	48582	794	396
0	48598	794	296
0	48616	794	395
0	48632	794	295
0	48650	794	394
0	48666	794	294
0	48684	794	393
0	48700	794	293
0	48718	794	392
0	48734	794	292
0	48752	794	391
0	48768	794	291
0	48786	794	390
0	48802	794	290
0	48820	794	389
0	48836	794	289
0	48854	794	388
0	48870	794	288
0	48888	794	387
0	48904	794	287
0	48922	794	386
0	48938	794	286
0	48956	794	385
0	48972	794	285
0	48990	794	384
0	49006	794	284
0	49024	794	383
0	49040	794	283
0	49058	794	382
0	49074	794	282
0	49092	794	381
0	49108	794	281
0	49126	794	380
0	49142	794	280
0	49160	794	379
0	49176	794	279
0	49194	794	378
0	49210	794	278
0	49228	794	377
0	49244	794	277
0	49262	794	376
0	49278	794	276
0	49296	794	375
0	49312	794	275
0	49330	794	374
0	49346	794	274
0	49364	794	373
0	49380	794	273
0	49398	794	372
0	49414	794	272
0	49432	794	371
0	49448	794	271
0	49466	794	370
0	49482	794	270
0	49500	794	369
0	49516	794	269
0	49534	794	368
0	49550	794	268
0	49568	794	367
0	49584	794	267
0	49602	794	366
0	49618	794	266
0	49636	794	365
0	49652	794	265
0	49670	794	364
0	49686	794	264
0	49704	794	363
0	49720	794	263
0	49738	794	362
0	49754	794	262
0	49772	794	361
0	49788	794	261
0	49806	794	360
0	49822	794	260
0	49840	794	359
0	49856	794	259
0	49874	794	358
0	49890	794	258
0	49908	794	357
0	49924	794	257
0	49942	794	356
0	49958	794	256
0	49976	794	355
0	49992	794	255
0	50010	794	354
0	50026	794	254
0	50044	794	353
0	50060	794	253
0	50078	794	352
0	50094	794	252
0	50112	794	351
0	50128	794	251
0	50146	794	350
0	50162	794	250
0	50180	794	349
0	50196	794	249
0	50214	794	348
0	50230	794	248
0	50248	794	347
0	50264	794	247
0	50282	794	346
0	50298	794	246
0	50316	794	345
0	50332	794	245
0	50350	794	344
0	50366	794	244
0	50384	794	343
0	50400	794	243
0	50418	794	342
0	50434	794	242
0	50452	794	341
0	50468	794	241
0	50486	794	340
0	50502	794	240
0	50520	794	339
0	50536	794	239
0	50554	794	338
0	50570	794	238
0	50588	794	337
0	50604	794	237
0	50622	794	336
0	50638	794	236
0	50656	794	335
0	50672	794	235
0	50690	794	334
0	50706	794	234
0	50724	794	333
0	50740	794	233
0	50758	794	332
0	50774	794	232
0	50792	794	331
0	50808	794	231
0	50826	794	230
0	50842	794	229
0	50860	794	228
0	50876	794	227
0	50894	794	226
0	50910	794	225
0	50928	794	224
0	50944	794	223
0	50962	794	222
0	50978	794	221
0	50996	794	220
0	51012	794	219
0	51030	794	218
0	51046	794	217
0	51064	794	216
0	51080	794	215
0	51098	794	214
0	51114	794	213
0	51132	794	212
0	51148	794	211
0	51166	794	210
0	51182	794	209
0	51200	794	208
0	51216	794	207
0	51234	794	206
0	51250	794	205
0	51268	794	204
0	51284	794	203
0	51302	794	202
0	51318	794	201
0	51336	794	200
0	51352	794	199
0	51370	794	198
0	51386	794	197
0	51404	794	196
0	51420	794	195
0	51438	794	194
0	51454	794	193
0	51472	794	192
0	51488	794	191
0	51506	794	190
0	51522	794	189
0	51540	794	188
0	51556	794	187
0	51574	794	186
0	51590	794	185
0	51608	794	184
0	51624	794	183
0	51642	794	182
0	51658	794	181
0	51676	794	180
0	51692	794	179
0	51710	794	178
0	51726	794	177
0	51744	794	176
0	51760	794	175
0	51778	794	174
0	51794	794	173
0	51812	794	172
0	51828	794	171
0	51846	794	170
0	51862	794	169
0	51880	794	168
0	51896	794	167
0	51914	794	166
0	51930	794	165
0	51948	794	164
0	51964	794	163
0	51982	794	162
0	51998	794	161
0	52016	794	160
0	52032	794	159
0	52050	794	158
0	52066	794	157
0	52084	794	156
0	52100	794	155
0	52118	794	154
0	52134	794	153
0	52152	794	152
0	52168	794	151
0	52186	794	150
0	52202	794	149
0	52220	794	148
0	52236	794	147
0	52254	794	146
0	52270	794	145
0	52288	794	144
0	52304	794	143
0	52322	794	142
0	52338	794	141
0	52356	794	140
0	52372	794	139
0	52390	794	138
0	52406	794	137
0	52424	794	136
0	52440	794	135
0	52458	794	134
0	52474	794	133
0	52492	794	132
0	52508	794	131
0	52526	794	130
0	52542	794	129
0	52560	794	128
0	52576	794	127
0	52594	794	126
0	52610	794	125
0	52628	794	124
0	52644	794	123
0	52662	794	122
0	52678	794	121
0	52696	794	120
0	52712	794	119
0	52730	794	118
0	52746	794	117
0	52764	794	116
0	52780	794	115
0	52798	794	114
0	52814	794	113
0	52832	794	112
0	52848	794	111
0	52866	794	110
0	52882	794	109
0	52900	794	108
0	52916	794	107
0	52934	794	106
0	52950	794	105
0	52968	794	104
0	52984	794	103
0	53002	794	102
0	53018	794	101
0	53036	794	100
0	53052	794	99
0	53070	794	98
0	53086	794	97
0	53104	794	96
0	53120	794	95
0	53138	794	94
0	53154	794	93
0	53172	794	92
0	53188	794	91
0	53206	794	90
0	53222	794	89
0	53240	794	88
0	53256	794	87
0	53274	794	86
0	53290	794	85
0	53308	794	84
0	53324	794	83
0	53342	794	82
0	53358	794	81
0	53376	794	80
0	53392	794	79
0	53410	794	78
0	53426	794	77
0	53444	794	76
0	53460	794	75
0	53478	794	74
0	53494	794	73
0	53512	794	72
0	53528	794	71
0	53546	794	70
0	53562	794	69
0	53580	794	68
0	53596	794	67
0	53614	794	66
0	53630	794	65
0	53648	794	64
0	53664	794	63
0	53682	794	62
0	53698	794	61
0	53716	794	60
0	53732	794	59
0	53750	794	58
0	53766	794	57
0	53784	794	56
0	53800	794	55
0	53818	794	54
0	53834	794	53
0	53852	794	52
0	53868	794	51
0	53886	794	50
0	53902	794	49
0	53920	794	48
0	53936	794	47
0	53954	794	46
0	53970	794	45
0	53988	794	44
0	54004	794	43
0	54022	794	42
0	54038	794	41
0	54056	794	40
0	54072	794	39
0	54090	794	38
0	54106	794	37
0	54124	794	36
0	54140	794	35
0	54158	794	34
0	54174	794	33
0	54192	794	32
0	54208	794	31
0	54226	794	30
0	54242	794	29
0	54260	794	28
0	54276	794	27
0	54294	794	26
0	54310	794	25
0	54328	794	24
0	54344	794	23
0	54362	794	22
0	54378	794	21
0	54396	794	20
0	54412	794	19
0	54430	794	18
0	54446	794	17
0	54464	794	16
0	54480	794	15
0	54498	794	14
0	54514	794	13
0	54532	794	12
0	54548	794	11
0	54566	794	10
0	54582	794	9
0	54600	794	8
0	54616	794	7
0	54634	794	6
0	54650	794	5
0	54668	794	4
0	54684	794	3
0	54702	794	2
0	58465	844	51
0	58476	844	50
0	58490	844	49
0	58504	844	48
0	58518	844	47
0	58532	844	46
0	58546	844	45
0	58560	844	44
0	58574	844	43
0	58588	844	42
0	58602	844	41
0	58616	844	40
0	58630	844	39
0	58644	844	38
0	58658	844	37
0	58672	844	36
0	58686	844	35
0	58700	844	34
0	58714	844	33
0	58728	844	32
0	58742	844	31
0	58756	844	30
0	58770	844	29
0	58784	844	28
0	58798	844	27
0	58812	844	26
0	58826	844	25
0	58840	844	24
0	58854	844	23
0	58868	844	22
0	58882	844	21
0	58896	844	20
0	58910	844	19
0	58924	844	18
0	58938	844	17
0	58952	844	16
0	58966	844	15
0	58980	844	14
0	58994	844	13
0	59008	844	12
0	59022	844	11
0	59036	844	10
0	59050	844	9
0	59064	844	8
0	59078	844	7
0	59092	844	6
0	59106	844	5
0	59120	844	4
0	59134	844	3
0	59148	844	2
0	59162	844	1
0	65881	857	13
0	65899	857	12
0	65917	857	393
0	65932	857	392
0	65946	857	391
0	65960	857	390
0	65974	857	389
0	65988	857	388
0	66002	857	387
0	66016	857	386
0	66030	857	385
0	66044	857	384
0	66058	857	749
0	66072	857	649
0	66086	857	748
0	66100	857	648
0	66114	857	747
0	66128	857	647
0	66142	857	746
0	66156	857	646
0	66170	857	745
0	66184	857	645
0	66198	857	744
0	66212	857	644
0	66226	857	743
0	66240	857	643
0	66254	857	742
0	66268	857	642
0	66282	857	741
0	66296	857	641
0	66310	857	740
0	66324	857	640
0	66338	857	739
0	66352	857	639
0	66366	857	738
0	66380	857	638
0	66394	857	737
0	66408	857	637
0	66422	857	736
0	66436	857	636
0	66450	857	735
0	66464	857	635
0	66478	857	734
0	66492	857	634
0	66506	857	733
0	66520	857	633
0	66534	857	732
0	66548	857	632
0	66562	857	731
0	66576	857	631
0	66590	857	730
0	66604	857	630
0	66618	857	729
0	66632	857	629
0	66646	857	728
0	66660	857	628
0	66674	857	727
0	66688	857	627
0	66702	857	726
0	66716	857	626
0	66730	857	725
0	66744	857	625
0	66758	857	724
0	66772	857	624
0	66786	857	723
0	66800	857	623
0	66814	857	722
0	66828	857	622
0	66842	857	721
0	66856	857	621
0	66870	857	720
0	66884	857	620
0	66898	857	719
0	66912	857	619
0	66926	857	718
0	66940	857	618
0	66954	857	717
0	66968	857	617
0	66982	857	716
0	66996	857	616
0	67010	857	715
0	67024	857	615
0	67038	857	614
0	67052	857	613
0	67066	857	612
0	67080	857	611
0	67094	857	610
0	67108	857	609
0	67122	857	608
0	67136	857	607
0	67150	857	606
0	67164	857	605
0	67178	857	604
0	67192	857	603
0	67206	857	602
0	67220	857	601
0	67234	857	600
0	67248	857	599
0	67262	857	598
0	67276	857	597
0	67290	857	596
0	67304	857	595
0	67318	857	594
0	67332	857	593
0	67346	857	592
0	67360	857	591
0	67374	857	590
0	67388	857	589
0	67402	857	588
0	67416	857	587
0	67430	857	586
0	67444	857	585
0	67458	857	584
0	67472	857	583
0	67486	857	582
0	67500	857	581
0	67514	857	580
0	67528	857	579
0	67542	857	578
0	67556	857	577
0	67570	857	576
0	67584	857	575
0	67598	857	574
0	67612	857	573
0	67626	857	572
0	67640	857	571
0	67654	857	570
0	67668	857	569
0	67682	857	568
0	67696	857	567
0	67710	857	566
0	67724	857	565
0	67738	857	564
0	67752	857	563
0	67766	857	562
0	67780	857	561
0	67794	857	560
0	67808	857	559
0	67822	857	558
0	67836	857	557
0	67850	857	556
0	67864	857	555
0	67878	857	554
0	67892	857	553
0	67906	857	552
0	67920	857	551
0	67934	857	550
0	67948	857	549
0	67962	857	548
0	67976	857	547
0	67990	857	546
0	68004	857	545
0	68018	857	544
0	68032	857	543
0	68046	857	542
0	68060	857	541
0	68074	857	540
0	68088	857	539
0	68102	857	538
0	68116	857	537
0	68130	857	536
0	68144	857	535
0	68158	857	534
0	68172	857	533
0	68186	857	532
0	68200	857	531
0	68214	857	530
0	68228	857	529
0	68242	857	528
0	68256	857	527
0	68270	857	526
0	68284	857	525
0	68298	857	524
0	68312	857	523
0	68326	857	522
0	68340	857	521
0	68354	857	520
0	68368	857	519
0	68382	857	518
0	68396	857	517
0	68410	857	516
0	68424	857	515
0	68438	857	514
0	68452	857	513
0	68466	857	512
0	68480	857	511
0	68494	857	510
0	68508	857	509
0	68522	857	508
0	68536	857	507
0	68550	857	506
0	68564	857	505
0	68578	857	504
0	68592	857	503
0	68606	857	502
0	68620	857	501
0	68634	857	500
0	68648	857	499
0	68662	857	498
0	68676	857	497
0	68690	857	496
0	68704	857	495
0	68718	857	494
0	68732	857	493
0	68746	857	492
0	68760	857	491
0	68774	857	490
0	68788	857	489
0	68802	857	488
0	68816	857	487
0	68830	857	486
0	68844	857	485
0	68858	857	484
0	68872	857	483
0	68886	857	383
0	68900	857	482
0	68914	857	382
0	68928	857	481
0	68942	857	381
0	68956	857	480
0	68970	857	380
0	68984	857	479
0	68998	857	379
0	69012	857	478
0	69026	857	378
0	69040	857	477
0	69054	857	377
0	69068	857	476
0	69082	857	376
0	69096	857	475
0	69110	857	375
0	69124	857	474
0	69138	857	374
0	69152	857	473
0	69166	857	373
0	69180	857	472
0	69194	857	372
0	69208	857	471
0	69222	857	371
0	69236	857	470
0	69250	857	370
0	69264	857	469
0	69278	857	369
0	69292	857	468
0	69306	857	368
0	69320	857	467
0	69334	857	367
0	69348	857	466
0	69362	857	366
0	69376	857	465
0	69390	857	365
0	69404	857	464
0	69418	857	364
0	69432	857	463
0	69446	857	363
0	69460	857	462
0	69474	857	362
0	69488	857	461
0	69502	857	361
0	69516	857	460
0	69530	857	360
0	69544	857	459
0	69558	857	359
0	69572	857	458
0	69586	857	358
0	69600	857	457
0	69614	857	357
0	69628	857	456
0	69642	857	356
0	69656	857	455
0	69670	857	355
0	69684	857	454
0	69698	857	354
0	69712	857	453
0	69726	857	353
0	69740	857	452
0	69754	857	352
0	69768	857	451
0	69782	857	351
0	69796	857	450
0	69810	857	350
0	69824	857	449
0	69838	857	349
0	69852	857	448
0	69866	857	348
0	69880	857	447
0	69894	857	347
0	69908	857	446
0	69922	857	346
0	69936	857	445
0	69950	857	345
0	69964	857	444
0	69978	857	344
0	69992	857	443
0	70006	857	343
0	70020	857	442
0	70034	857	342
0	70048	857	441
0	70062	857	341
0	70076	857	440
0	70090	857	340
0	70104	857	439
0	70118	857	339
0	70132	857	438
0	70146	857	338
0	70160	857	437
0	70174	857	337
0	70188	857	436
0	70202	857	336
0	70216	857	435
0	70230	857	335
0	70244	857	434
0	70258	857	334
0	70272	857	433
0	70286	857	333
0	70300	857	432
0	70314	857	332
0	70328	857	431
0	70342	857	331
0	70356	857	430
0	70370	857	330
0	70384	857	429
0	70398	857	329
0	70412	857	428
0	70426	857	328
0	70440	857	427
0	70454	857	327
0	70468	857	426
0	70482	857	326
0	70496	857	425
0	70510	857	325
0	70524	857	424
0	70538	857	324
0	70552	857	423
0	70566	857	323
0	70580	857	422
0	70594	857	322
0	70608	857	421
0	70622	857	321
0	70636	857	420
0	70650	857	320
0	70664	857	419
0	70678	857	319
0	70692	857	418
0	70706	857	318
0	70720	857	417
0	70734	857	317
0	70748	857	416
0	70762	857	316
0	70776	857	415
0	70790	857	315
0	70804	857	414
0	70818	857	314
0	70832	857	413
0	70846	857	313
0	70860	857	412
0	70874	857	312
0	70888	857	411
0	70902	857	311
0	70916	857	410
0	70930	857	310
0	70944	857	409
0	70958	857	309
0	70972	857	408
0	70986	857	308
0	71000	857	407
0	71014	857	307
0	71028	857	406
0	71042	857	306
0	71056	857	405
0	71070	857	305
0	71084	857	404
0	71098	857	304
0	71112	857	403
0	71126	857	303
0	71140	857	402
0	71154	857	302
0	71168	857	401
0	71182	857	301
0	71196	857	400
0	71210	857	300
0	71224	857	399
0	71238	857	299
0	71252	857	398
0	71266	857	298
0	71280	857	397
0	71294	857	297
0	71308	857	396
0	71322	857	296
0	71336	857	395
0	71350	857	295
0	71364	857	394
0	71378	857	294
0	71392	857	293
0	71406	857	292
0	71420	857	291
0	71434	857	290
0	71448	857	289
0	71462	857	288
0	71476	857	287
0	71490	857	286
0	71504	857	285
0	71518	857	284
0	71532	857	283
0	71546	857	282
0	71560	857	281
0	71574	857	280
0	71588	857	279
0	71602	857	278
0	71616	857	277
0	71630	857	276
0	71644	857	275
0	71658	857	274
0	71672	857	273
0	71686	857	272
0	71700	857	271
0	71714	857	270
0	71728	857	269
0	71742	857	268
0	71756	857	267
0	71770	857	266
0	71784	857	265
0	71798	857	264
0	71812	857	263
0	71826	857	262
0	71840	857	261
0	71854	857	260
0	71868	857	259
0	71882	857	258
0	71896	857	257
0	71910	857	256
0	71924	857	255
0	71938	857	254
0	71952	857	253
0	71966	857	252
0	71980	857	251
0	71994	857	250
0	72008	857	249
0	72022	857	248
0	72036	857	247
0	72050	857	246
0	72064	857	245
0	72078	857	244
0	72092	857	243
0	72106	857	242
0	72120	857	241
0	72134	857	240
0	72148	857	239
0	72162	857	238
0	72176	857	237
0	72190	857	236
0	72204	857	235
0	72218	857	234
0	72232	857	233
0	72246	857	232
0	72260	857	231
0	72274	857	230
0	72288	857	229
0	72302	857	228
0	72316	857	227
0	72330	857	226
0	72344	857	225
0	72358	857	224
0	72372	857	223
0	72386	857	222
0	72400	857	221
0	72414	857	220
0	72428	857	219
0	72442	857	218
0	72456	857	217
0	72470	857	216
0	72484	857	215
0	72498	857	214
0	72512	857	213
0	72526	857	212
0	72540	857	211
0	72554	857	210
0	72568	857	209
0	72582	857	208
0	72596	857	207
0	72610	857	206
0	72624	857	205
0	72638	857	204
0	72652	857	203
0	72666	857	202
0	72680	857	201
0	72694	857	200
0	72708	857	199
0	72722	857	198
0	72736	857	197
0	72750	857	196
0	72764	857	195
0	72778	857	194
0	72792	857	193
0	72806	857	192
0	72820	857	191
0	72834	857	190
0	72848	857	189
0	72862	857	188
0	72876	857	187
0	72890	857	186
0	72904	857	185
0	72918	857	184
0	72932	857	183
0	72946	857	182
0	72960	857	181
0	72974	857	180
0	72988	857	179
0	73002	857	178
0	73016	857	177
0	73030	857	176
0	73044	857	175
0	73058	857	174
0	73072	857	173
0	73086	857	172
0	73100	857	171
0	73114	857	170
0	73128	857	169
0	73142	857	168
0	73156	857	167
0	73170	857	166
0	73184	857	165
0	73198	857	164
0	73212	857	163
0	73226	857	162
0	73240	857	161
0	73254	857	160
0	73268	857	159
0	73282	857	158
0	73296	857	157
0	73310	857	156
0	73324	857	155
0	73338	857	154
0	73352	857	153
0	73366	857	152
0	73380	857	151
0	73394	857	150
0	73408	857	149
0	73422	857	148
0	73436	857	147
0	73450	857	146
0	73464	857	145
0	73478	857	144
0	73492	857	143
0	73506	857	142
0	73520	857	141
0	73534	857	140
0	73548	857	139
0	73562	857	138
0	73576	857	137
0	73590	857	136
0	73604	857	135
0	73618	857	134
0	73632	857	133
0	73646	857	132
0	73660	857	131
0	73674	857	130
0	73688	857	129
0	73702	857	128
0	73716	857	127
0	73730	857	126
0	73744	857	125
0	73758	857	124
0	73772	857	123
0	73786	857	122
0	73800	857	121
0	73814	857	120
0	73828	857	119
0	73842	857	118
0	73856	857	117
0	73870	857	116
0	73884	857	115
0	73898	857	114
0	73912	857	113
0	73926	857	112
0	73940	857	111
0	73954	857	11
0	73968	857	110
0	73982	857	10
0	73996	857	109
0	74010	857	9
0	74024	857	108
0	74038	857	8
0	74052	857	107
0	74066	857	7
0	74080	857	106
0	74094	857	6
0	74108	857	105
0	74122	857	5
0	74136	857	104
0	74150	857	4
0	74164	857	103
0	74178	857	3
0	74192	857	102
0	74206	857	2
0	74220	857	101
0	74234	857	1
0	75462	858	101
0	75480	858	1
0	75523	859	101
0	75541	859	1
0	75584	860	101
0	75602	860	1
0	75647	861	101
0	75665	861	1
0	75709	862	101
0	75727	862	1
0	75771	863	101
0	75789	863	1
0	75833	864	101
0	75851	864	1
0	75895	865	101
0	75913	865	1
0	75957	866	101
0	75975	866	1
0	76019	867	101
0	76037	867	1
0	76081	868	101
0	76099	868	1
0	76143	869	101
0	76161	869	1
0	76205	870	101
0	76223	870	1
0	76267	871	101
0	76285	871	1
0	76329	872	101
0	76347	872	1
0	76391	873	101
0	76409	873	1
0	76453	874	101
0	76471	874	1
0	76515	875	101
0	76533	875	1
0	76577	876	101
0	76595	876	1
0	76639	877	101
0	76657	877	1
0	76701	878	101
0	76719	878	1
0	76764	879	101
0	76782	879	1
0	76826	880	101
0	76844	880	1
0	76888	881	101
0	76906	881	1
0	76950	882	101
0	76968	882	1
0	77012	883	101
0	77030	883	1
0	77074	884	101
0	77092	884	1
0	77136	885	101
0	77154	885	1
0	77200	886	101
0	77218	886	1
0	77262	887	101
0	77280	887	1
0	77324	888	101
0	77342	888	1
0	77386	889	101
0	77404	889	1
0	77448	890	101
0	77466	890	1
0	77510	891	101
0	77528	891	1
0	77572	892	101
0	77590	892	1
0	78256	893	101
0	78270	893	1
0	78934	894	103
0	78948	894	102
0	78963	894	1
0	79001	895	1
0	79037	896	1
0	79066	897	1
0	79095	898	1
0	79124	899	1
0	79153	900	1
0	79182	901	1
0	79211	902	1
0	79240	903	1
0	79269	904	1
0	79298	905	1
0	79327	906	1
0	79356	907	1
0	79385	908	1
0	79413	909	1
0	79441	910	1
0	79469	911	1
0	79498	912	1
0	79763	923	11
0	79775	923	10
0	79792	923	9
0	79807	923	8
0	79821	923	7
0	79833	923	6
0	79844	923	5
0	79855	923	4
0	79866	923	3
0	79877	923	2
0	79888	923	1
0	79912	924	1
0	79951	925	1
0	79990	926	1
0	80029	927	1
0	80069	928	1
0	82430	998	103
0	82437	998	102
0	82449	998	101
0	82478	999	101
0	82503	1000	101
0	82528	1001	101
0	82559	1002	101
0	90635	1003	101
0	90649	1003	75
0	90665	1003	74
0	90677	1003	73
0	90689	1003	72
0	90700	1003	71
0	90712	1003	70
0	90723	1003	69
0	90735	1003	68
0	90746	1003	67
0	90758	1003	66
0	90769	1003	65
0	90781	1003	64
0	90792	1003	63
0	90804	1003	62
0	90815	1003	61
0	90827	1003	210
0	90838	1003	209
0	90850	1003	208
0	90861	1003	207
0	90873	1003	206
0	90884	1003	205
0	90896	1003	204
0	90907	1003	203
0	90919	1003	202
0	90930	1003	201
0	90942	1003	200
0	90953	1003	199
0	90965	1003	198
0	90976	1003	197
0	90988	1003	196
0	90999	1003	195
0	91011	1003	194
0	91022	1003	193
0	91034	1003	192
0	91045	1003	191
0	91057	1003	190
0	91068	1003	189
0	91080	1003	188
0	91091	1003	187
0	91103	1003	186
0	91114	1003	185
0	91126	1003	184
0	91137	1003	183
0	91149	1003	182
0	91160	1003	181
0	91172	1003	180
0	91183	1003	179
0	91195	1003	178
0	91206	1003	177
0	91218	1003	176
0	91229	1003	175
0	91241	1003	174
0	91252	1003	173
0	91264	1003	172
0	91275	1003	171
0	91287	1003	170
0	91298	1003	169
0	91310	1003	168
0	91321	1003	167
0	91333	1003	166
0	91344	1003	165
0	91356	1003	164
0	91367	1003	163
0	91379	1003	162
0	91390	1003	161
0	91402	1003	160
0	91413	1003	60
0	91425	1003	159
0	91436	1003	59
0	91448	1003	158
0	91459	1003	58
0	91471	1003	539
0	91482	1003	538
0	91494	1003	537
0	91505	1003	536
0	91517	1003	535
0	91528	1003	534
0	91540	1003	533
0	91551	1003	532
0	91563	1003	531
0	91574	1003	530
0	91586	1003	895
0	91597	1003	795
0	91609	1003	894
0	91620	1003	794
0	91632	1003	893
0	91643	1003	793
0	91655	1003	892
0	91666	1003	792
0	91678	1003	891
0	91689	1003	791
0	91701	1003	890
0	91712	1003	790
0	91724	1003	889
0	91735	1003	789
0	91747	1003	888
0	91758	1003	788
0	91770	1003	887
0	91781	1003	787
0	91793	1003	886
0	91804	1003	786
0	91816	1003	885
0	91827	1003	785
0	91839	1003	884
0	91850	1003	784
0	91862	1003	883
0	91873	1003	783
0	91885	1003	882
0	91896	1003	782
0	91908	1003	881
0	91919	1003	781
0	91931	1003	880
0	91942	1003	780
0	91954	1003	879
0	91965	1003	779
0	91977	1003	878
0	91988	1003	778
0	92000	1003	877
0	92011	1003	777
0	92023	1003	876
0	92034	1003	776
0	92046	1003	875
0	92057	1003	775
0	92069	1003	874
0	92080	1003	774
0	92092	1003	873
0	92103	1003	773
0	92115	1003	872
0	92126	1003	772
0	92138	1003	871
0	92149	1003	771
0	92161	1003	870
0	92172	1003	770
0	92184	1003	869
0	92195	1003	769
0	92207	1003	868
0	92218	1003	768
0	92230	1003	867
0	92241	1003	767
0	92253	1003	866
0	92264	1003	766
0	92276	1003	865
0	92287	1003	765
0	92299	1003	864
0	92310	1003	764
0	92322	1003	863
0	92333	1003	763
0	92345	1003	862
0	92356	1003	762
0	92368	1003	861
0	92379	1003	761
0	92391	1003	760
0	92402	1003	759
0	92414	1003	758
0	92425	1003	757
0	92437	1003	756
0	92448	1003	755
0	92460	1003	754
0	92471	1003	753
0	92483	1003	752
0	92494	1003	751
0	92506	1003	750
0	92517	1003	749
0	92529	1003	748
0	92540	1003	747
0	92552	1003	746
0	92563	1003	745
0	92575	1003	744
0	92586	1003	743
0	92598	1003	742
0	92609	1003	741
0	92621	1003	740
0	92632	1003	739
0	92644	1003	738
0	92655	1003	737
0	92667	1003	736
0	92678	1003	735
0	92690	1003	734
0	92701	1003	733
0	92713	1003	732
0	92724	1003	731
0	92736	1003	730
0	92747	1003	729
0	92759	1003	728
0	92770	1003	727
0	92782	1003	726
0	92793	1003	725
0	92805	1003	724
0	92816	1003	723
0	92828	1003	722
0	92839	1003	721
0	92851	1003	720
0	92862	1003	719
0	92874	1003	718
0	92885	1003	717
0	92897	1003	716
0	92908	1003	715
0	92920	1003	714
0	92931	1003	713
0	92943	1003	712
0	92954	1003	711
0	92966	1003	710
0	92977	1003	709
0	92989	1003	708
0	93000	1003	707
0	93012	1003	706
0	93023	1003	705
0	93035	1003	704
0	93046	1003	703
0	93058	1003	702
0	93069	1003	701
0	93081	1003	700
0	93092	1003	699
0	93104	1003	698
0	93115	1003	697
0	93127	1003	696
0	93138	1003	695
0	93150	1003	694
0	93161	1003	693
0	93173	1003	692
0	93184	1003	691
0	93196	1003	690
0	93207	1003	689
0	93219	1003	688
0	93230	1003	687
0	93242	1003	686
0	93253	1003	685
0	93265	1003	684
0	93276	1003	683
0	93288	1003	682
0	93299	1003	681
0	93311	1003	680
0	93322	1003	679
0	93334	1003	678
0	93345	1003	677
0	93357	1003	676
0	93368	1003	675
0	93380	1003	674
0	93391	1003	673
0	93403	1003	672
0	93414	1003	671
0	93426	1003	670
0	93437	1003	669
0	93449	1003	668
0	93460	1003	667
0	93472	1003	666
0	93483	1003	665
0	93495	1003	664
0	93506	1003	663
0	93518	1003	662
0	93529	1003	661
0	93541	1003	660
0	93552	1003	659
0	93564	1003	658
0	93575	1003	657
0	93587	1003	656
0	93598	1003	655
0	93610	1003	654
0	93621	1003	653
0	93633	1003	652
0	93644	1003	651
0	93656	1003	650
0	93667	1003	649
0	93679	1003	648
0	93690	1003	647
0	93702	1003	646
0	93713	1003	645
0	93725	1003	644
0	93736	1003	643
0	93748	1003	642
0	93759	1003	641
0	93771	1003	640
0	93782	1003	639
0	93794	1003	638
0	93805	1003	637
0	93817	1003	636
0	93828	1003	635
0	93840	1003	634
0	93851	1003	633
0	93863	1003	632
0	93874	1003	631
0	93886	1003	630
0	93897	1003	629
0	93909	1003	529
0	93920	1003	628
0	93932	1003	528
0	93943	1003	627
0	93955	1003	527
0	93966	1003	626
0	93978	1003	526
0	93989	1003	625
0	94001	1003	525
0	94012	1003	624
0	94024	1003	524
0	94035	1003	623
0	94047	1003	523
0	94058	1003	622
0	94070	1003	522
0	94081	1003	621
0	94093	1003	521
0	94104	1003	620
0	94116	1003	520
0	94127	1003	619
0	94139	1003	519
0	94150	1003	618
0	94162	1003	518
0	94173	1003	617
0	94185	1003	517
0	94196	1003	616
0	94208	1003	516
0	94219	1003	615
0	94231	1003	515
0	94242	1003	614
0	94254	1003	514
0	94265	1003	613
0	94277	1003	513
0	94288	1003	612
0	94300	1003	512
0	94311	1003	611
0	94323	1003	511
0	94334	1003	610
0	94346	1003	510
0	94357	1003	609
0	94369	1003	509
0	94380	1003	608
0	94392	1003	508
0	94403	1003	607
0	94415	1003	507
0	94426	1003	606
0	94438	1003	506
0	94449	1003	605
0	94461	1003	505
0	94472	1003	604
0	94484	1003	504
0	94495	1003	603
0	94507	1003	503
0	94518	1003	602
0	94530	1003	502
0	94541	1003	601
0	94553	1003	501
0	94564	1003	600
0	94576	1003	500
0	94587	1003	599
0	94599	1003	499
0	94610	1003	598
0	94622	1003	498
0	94633	1003	597
0	94645	1003	497
0	94656	1003	596
0	94668	1003	496
0	94679	1003	595
0	94691	1003	495
0	94702	1003	594
0	94714	1003	494
0	94725	1003	593
0	94737	1003	493
0	94748	1003	592
0	94760	1003	492
0	94771	1003	591
0	94783	1003	491
0	94794	1003	590
0	94806	1003	490
0	94817	1003	589
0	94829	1003	489
0	94840	1003	588
0	94852	1003	488
0	94863	1003	587
0	94875	1003	487
0	94886	1003	586
0	94898	1003	486
0	94909	1003	585
0	94921	1003	485
0	94932	1003	584
0	94944	1003	484
0	94955	1003	583
0	94967	1003	483
0	94978	1003	582
0	94990	1003	482
0	95001	1003	581
0	95013	1003	481
0	95024	1003	580
0	95036	1003	480
0	95047	1003	579
0	95059	1003	479
0	95070	1003	578
0	95082	1003	478
0	95093	1003	577
0	95105	1003	477
0	95116	1003	576
0	95128	1003	476
0	95139	1003	575
0	95151	1003	475
0	95162	1003	574
0	95174	1003	474
0	95185	1003	573
0	95197	1003	473
0	95208	1003	572
0	95220	1003	472
0	95231	1003	571
0	95243	1003	471
0	95254	1003	570
0	95266	1003	470
0	95277	1003	569
0	95289	1003	469
0	95300	1003	568
0	95312	1003	468
0	95323	1003	567
0	95335	1003	467
0	95346	1003	566
0	95358	1003	466
0	95369	1003	565
0	95381	1003	465
0	95392	1003	564
0	95404	1003	464
0	95415	1003	563
0	95427	1003	463
0	95438	1003	562
0	95450	1003	462
0	95461	1003	561
0	95473	1003	461
0	95484	1003	560
0	95496	1003	460
0	95507	1003	559
0	95519	1003	459
0	95530	1003	558
0	95542	1003	458
0	95553	1003	557
0	95565	1003	457
0	95576	1003	556
0	95588	1003	456
0	95599	1003	555
0	95611	1003	455
0	95622	1003	554
0	95634	1003	454
0	95645	1003	553
0	95657	1003	453
0	95668	1003	552
0	95680	1003	452
0	95691	1003	551
0	95703	1003	451
0	95714	1003	550
0	95726	1003	450
0	95737	1003	549
0	95749	1003	449
0	95760	1003	548
0	95772	1003	448
0	95783	1003	547
0	95795	1003	447
0	95806	1003	546
0	95818	1003	446
0	95829	1003	545
0	95841	1003	445
0	95852	1003	544
0	95864	1003	444
0	95875	1003	543
0	95887	1003	443
0	95898	1003	542
0	95910	1003	442
0	95921	1003	541
0	95933	1003	441
0	95944	1003	540
0	95956	1003	440
0	95967	1003	439
0	95979	1003	438
0	95990	1003	437
0	96002	1003	436
0	96013	1003	435
0	96025	1003	434
0	96036	1003	433
0	96048	1003	432
0	96059	1003	431
0	96071	1003	430
0	96082	1003	429
0	96094	1003	428
0	96105	1003	427
0	96117	1003	426
0	96128	1003	425
0	96140	1003	424
0	96151	1003	423
0	96163	1003	422
0	96174	1003	421
0	96186	1003	420
0	96197	1003	419
0	96209	1003	418
0	96220	1003	417
0	96232	1003	416
0	96243	1003	415
0	96255	1003	414
0	96266	1003	413
0	96278	1003	412
0	96289	1003	411
0	96301	1003	410
0	96312	1003	409
0	96324	1003	408
0	96335	1003	407
0	96347	1003	406
0	96358	1003	405
0	96370	1003	404
0	96381	1003	403
0	96393	1003	402
0	96404	1003	401
0	96416	1003	400
0	96427	1003	399
0	96439	1003	398
0	96450	1003	397
0	96462	1003	396
0	96473	1003	395
0	96485	1003	394
0	96496	1003	393
0	96508	1003	392
0	96519	1003	391
0	96531	1003	390
0	96542	1003	389
0	96554	1003	388
0	96565	1003	387
0	96577	1003	386
0	96588	1003	385
0	96600	1003	384
0	96611	1003	383
0	96623	1003	382
0	96634	1003	381
0	96646	1003	380
0	96657	1003	379
0	96669	1003	378
0	96680	1003	377
0	96692	1003	376
0	96703	1003	375
0	96715	1003	374
0	96726	1003	373
0	96738	1003	372
0	96749	1003	371
0	96761	1003	370
0	96772	1003	369
0	96784	1003	368
0	96795	1003	367
0	96807	1003	366
0	96818	1003	365
0	96830	1003	364
0	96841	1003	363
0	96853	1003	362
0	96864	1003	361
0	96876	1003	360
0	96887	1003	359
0	96899	1003	358
0	96910	1003	357
0	96922	1003	356
0	96933	1003	355
0	96945	1003	354
0	96956	1003	353
0	96968	1003	352
0	96979	1003	351
0	96991	1003	350
0	97002	1003	349
0	97014	1003	348
0	97025	1003	347
0	97037	1003	346
0	97048	1003	345
0	97060	1003	344
0	97071	1003	343
0	97083	1003	342
0	97094	1003	341
0	97106	1003	340
0	97117	1003	339
0	97129	1003	338
0	97140	1003	337
0	97152	1003	336
0	97163	1003	335
0	97175	1003	334
0	97186	1003	333
0	97198	1003	332
0	97209	1003	331
0	97221	1003	330
0	97232	1003	329
0	97244	1003	328
0	97255	1003	327
0	97267	1003	326
0	97278	1003	325
0	97290	1003	324
0	97301	1003	323
0	97313	1003	322
0	97324	1003	321
0	97336	1003	320
0	97347	1003	319
0	97359	1003	318
0	97370	1003	317
0	97382	1003	316
0	97393	1003	315
0	97405	1003	314
0	97416	1003	313
0	97428	1003	312
0	97439	1003	311
0	97451	1003	310
0	97462	1003	309
0	97474	1003	308
0	97485	1003	307
0	97497	1003	306
0	97508	1003	305
0	97520	1003	304
0	97531	1003	303
0	97543	1003	302
0	97554	1003	301
0	97566	1003	300
0	97577	1003	299
0	97589	1003	298
0	97600	1003	297
0	97612	1003	296
0	97623	1003	295
0	97635	1003	294
0	97646	1003	293
0	97658	1003	292
0	97669	1003	291
0	97681	1003	290
0	97692	1003	289
0	97704	1003	288
0	97715	1003	287
0	97727	1003	286
0	97738	1003	285
0	97750	1003	284
0	97761	1003	283
0	97773	1003	282
0	97784	1003	281
0	97796	1003	280
0	97807	1003	279
0	97819	1003	278
0	97830	1003	277
0	97842	1003	276
0	97853	1003	275
0	97865	1003	274
0	97876	1003	273
0	97888	1003	272
0	97899	1003	271
0	97911	1003	270
0	97922	1003	269
0	97934	1003	268
0	97945	1003	267
0	97957	1003	266
0	97968	1003	265
0	97980	1003	264
0	97991	1003	263
0	98003	1003	262
0	98014	1003	261
0	98026	1003	260
0	98037	1003	259
0	98049	1003	258
0	98060	1003	257
0	98072	1003	157
0	98083	1003	57
0	98095	1003	256
0	98106	1003	156
0	98118	1003	56
0	98129	1003	255
0	98141	1003	155
0	98152	1003	55
0	98164	1003	254
0	98175	1003	154
0	98187	1003	54
0	98198	1003	253
0	98210	1003	153
0	98221	1003	53
0	98233	1003	252
0	98244	1003	152
0	98256	1003	52
0	98267	1003	251
0	98279	1003	151
0	98290	1003	51
0	98302	1003	250
0	98313	1003	150
0	98325	1003	50
0	98336	1003	249
0	98348	1003	149
0	98359	1003	49
0	98371	1003	248
0	98382	1003	148
0	98394	1003	48
0	98405	1003	247
0	98417	1003	147
0	98428	1003	47
0	98440	1003	246
0	98451	1003	146
0	98463	1003	46
0	98474	1003	245
0	98486	1003	145
0	98497	1003	45
0	98509	1003	244
0	98520	1003	144
0	98532	1003	44
0	98543	1003	243
0	98555	1003	143
0	98566	1003	43
0	98578	1003	242
0	98589	1003	142
0	98601	1003	42
0	98612	1003	241
0	98624	1003	141
0	98635	1003	41
0	98647	1003	240
0	98658	1003	140
0	98670	1003	40
0	98681	1003	239
0	98693	1003	139
0	98704	1003	39
0	98716	1003	238
0	98727	1003	138
0	98739	1003	38
0	98750	1003	237
0	98762	1003	137
0	98773	1003	37
0	98785	1003	236
0	98796	1003	136
0	98808	1003	36
0	98819	1003	235
0	98831	1003	135
0	98842	1003	35
0	98854	1003	234
0	98865	1003	134
0	98877	1003	34
0	98888	1003	233
0	98900	1003	133
0	98911	1003	33
0	98923	1003	232
0	98934	1003	132
0	98946	1003	32
0	98957	1003	231
0	98969	1003	131
0	98980	1003	31
0	98992	1003	230
0	99003	1003	130
0	99015	1003	30
0	99026	1003	229
0	99038	1003	129
0	99049	1003	29
0	99061	1003	228
0	99072	1003	128
0	99084	1003	28
0	99095	1003	227
0	99107	1003	127
0	99118	1003	27
0	99130	1003	226
0	99141	1003	126
0	99153	1003	26
0	99164	1003	225
0	99176	1003	125
0	99187	1003	25
0	99199	1003	224
0	99210	1003	124
0	99222	1003	24
0	99233	1003	223
0	99245	1003	123
0	99256	1003	23
0	99268	1003	222
0	99279	1003	122
0	99291	1003	22
0	99302	1003	221
0	99314	1003	121
0	99325	1003	21
0	99337	1003	220
0	99348	1003	120
0	99360	1003	20
0	99371	1003	219
0	99383	1003	119
0	99394	1003	19
0	99406	1003	218
0	99417	1003	118
0	99429	1003	18
0	99440	1003	217
0	99452	1003	117
0	99463	1003	17
0	99475	1003	216
0	99486	1003	116
0	99498	1003	16
0	99509	1003	215
0	99521	1003	115
0	99532	1003	15
0	99544	1003	214
0	99555	1003	114
0	99567	1003	14
0	99578	1003	213
0	99590	1003	113
0	99601	1003	13
0	99613	1003	212
0	99624	1003	112
0	99636	1003	12
0	99647	1003	211
0	99659	1003	111
0	99670	1003	11
0	99682	1003	110
0	99693	1003	10
0	99705	1003	109
0	99716	1003	9
0	99728	1003	108
0	99739	1003	8
0	99751	1003	107
0	99762	1003	7
0	99774	1003	106
0	99785	1003	6
0	99797	1003	105
0	99808	1003	5
0	99820	1003	104
0	99831	1003	4
0	99843	1003	103
0	99854	1003	3
0	99866	1003	102
0	99877	1003	2
0	99889	1003	101
0	99900	1003	1
0	99938	1004	101
0	99952	1004	101
0	99968	1004	1
0	100007	1005	101
0	100021	1005	101
0	100037	1005	1
0	100076	1006	101
0	100090	1006	101
0	100106	1006	1
0	100145	1007	101
0	100159	1007	101
0	100175	1007	1
0	100214	1008	101
0	100228	1008	101
0	100244	1008	1
0	100283	1009	101
0	100297	1009	101
0	100313	1009	1
0	100352	1010	101
0	100366	1010	101
0	100382	1010	1
0	100421	1011	101
0	100435	1011	101
0	100451	1011	1
0	100486	1012	101
0	100500	1012	101
0	100516	1012	1
0	100548	1013	101
0	100562	1013	1
0	100598	1014	101
0	100612	1014	1
0	100648	1015	101
0	100662	1015	1
0	100698	1016	101
0	100712	1016	1
0	100748	1017	101
0	100762	1017	1
0	100798	1018	101
0	100812	1018	1
0	100848	1019	101
0	100862	1019	1
0	100898	1020	101
0	100912	1020	1
0	100948	1021	101
0	100962	1021	1
0	101023	1022	101
0	101037	1022	1
0	101141	1023	111
0	101155	1023	110
0	101171	1023	109
0	101183	1023	108
0	101195	1023	107
0	101206	1023	106
0	101218	1023	105
0	101229	1023	104
0	101241	1023	103
0	101252	1023	102
0	101264	1023	101
0	101275	1023	101
0	101287	1023	1
0	101326	1024	101
0	101340	1024	101
0	101356	1024	1
0	101396	1025	101
0	101410	1025	101
0	101426	1025	1
0	101466	1026	101
0	101480	1026	101
0	101496	1026	1
0	101542	1027	101
0	101562	1027	101
0	101583	1027	1
0	101694	1028	101
0	101708	1028	101
0	101724	1028	1
0	106349	1029	1
0	106384	1030	1
0	106419	1031	1
0	106454	1032	1
0	106489	1033	1
0	106524	1034	1
0	106559	1035	1
0	106594	1036	1
0	106629	1037	1
0	106664	1038	1
0	106699	1039	1
0	106734	1040	1
0	106769	1041	1
0	106804	1042	1
0	106840	1043	1
0	107067	1052	9
0	107086	1052	8
0	107109	1052	7
0	107131	1052	6
0	107153	1052	5
0	107175	1052	4
0	107197	1052	3
0	107219	1052	2
0	107241	1052	1
0	107309	1053	1
0	107348	1054	1
0	107585	1098	203
0	107595	1098	202
0	107611	1098	201
0	107651	1099	201
0	107683	1100	201
0	107715	1101	201
0	109357	1102	201
0	114193	1103	201
0	114205	1103	175
0	114222	1103	174
0	114236	1103	173
0	114252	1103	172
0	114266	1103	171
0	114282	1103	170
0	114296	1103	169
0	114312	1103	168
0	114326	1103	167
0	114342	1103	166
0	114356	1103	165
0	114372	1103	164
0	114386	1103	163
0	114402	1103	162
0	114416	1103	161
0	114432	1103	310
0	114446	1103	309
0	114462	1103	308
0	114476	1103	307
0	114492	1103	306
0	114506	1103	305
0	114522	1103	304
0	114536	1103	303
0	114552	1103	302
0	114566	1103	301
0	114582	1103	300
0	114596	1103	299
0	114612	1103	298
0	114626	1103	297
0	114642	1103	296
0	114656	1103	295
0	114672	1103	294
0	114686	1103	293
0	114702	1103	292
0	114716	1103	291
0	114732	1103	290
0	114746	1103	289
0	114762	1103	288
0	114776	1103	287
0	114792	1103	286
0	114806	1103	285
0	114822	1103	284
0	114836	1103	283
0	114852	1103	282
0	114866	1103	281
0	114882	1103	280
0	114896	1103	279
0	114912	1103	278
0	114926	1103	277
0	114942	1103	276
0	114956	1103	275
0	114972	1103	274
0	114986	1103	273
0	115002	1103	272
0	115016	1103	271
0	115032	1103	270
0	115046	1103	269
0	115062	1103	268
0	115076	1103	267
0	115092	1103	266
0	115106	1103	265
0	115122	1103	264
0	115136	1103	263
0	115152	1103	262
0	115166	1103	261
0	115182	1103	260
0	115196	1103	160
0	115212	1103	259
0	115226	1103	159
0	115242	1103	258
0	115256	1103	158
0	115272	1103	639
0	115286	1103	638
0	115302	1103	637
0	115316	1103	636
0	115332	1103	635
0	115346	1103	634
0	115362	1103	633
0	115376	1103	632
0	115392	1103	631
0	115406	1103	630
0	115422	1103	995
0	115436	1103	895
0	115452	1103	994
0	115466	1103	894
0	115482	1103	993
0	115496	1103	893
0	115512	1103	992
0	115526	1103	892
0	115542	1103	991
0	115556	1103	891
0	115572	1103	990
0	115586	1103	890
0	115602	1103	989
0	115616	1103	889
0	115632	1103	988
0	115646	1103	888
0	115662	1103	987
0	115676	1103	887
0	115692	1103	986
0	115706	1103	886
0	115722	1103	985
0	115736	1103	885
0	115752	1103	984
0	115766	1103	884
0	115782	1103	983
0	115796	1103	883
0	115812	1103	982
0	115826	1103	882
0	115842	1103	981
0	115856	1103	881
0	115872	1103	980
0	115886	1103	880
0	115902	1103	979
0	115916	1103	879
0	115932	1103	978
0	115946	1103	878
0	115962	1103	977
0	115976	1103	877
0	115992	1103	976
0	116006	1103	876
0	116022	1103	975
0	116036	1103	875
0	116052	1103	974
0	116066	1103	874
0	116082	1103	973
0	116096	1103	873
0	116112	1103	972
0	116126	1103	872
0	116142	1103	971
0	116156	1103	871
0	116172	1103	970
0	116186	1103	870
0	116202	1103	969
0	116216	1103	869
0	116232	1103	968
0	116246	1103	868
0	116262	1103	967
0	116276	1103	867
0	116292	1103	966
0	116306	1103	866
0	116322	1103	965
0	116336	1103	865
0	116352	1103	964
0	116366	1103	864
0	116382	1103	963
0	116396	1103	863
0	116412	1103	962
0	116426	1103	862
0	116442	1103	961
0	116456	1103	861
0	116472	1103	860
0	116486	1103	859
0	116502	1103	858
0	116516	1103	857
0	116532	1103	856
0	116546	1103	855
0	116562	1103	854
0	116576	1103	853
0	116592	1103	852
0	116606	1103	851
0	116622	1103	850
0	116636	1103	849
0	116652	1103	848
0	116666	1103	847
0	116682	1103	846
0	116696	1103	845
0	116712	1103	844
0	116726	1103	843
0	116742	1103	842
0	116756	1103	841
0	116772	1103	840
0	116786	1103	839
0	116802	1103	838
0	116816	1103	837
0	116832	1103	836
0	116846	1103	835
0	116862	1103	834
0	116876	1103	833
0	116892	1103	832
0	116906	1103	831
0	116922	1103	830
0	116936	1103	829
0	116952	1103	828
0	116966	1103	827
0	116982	1103	826
0	116996	1103	825
0	117012	1103	824
0	117026	1103	823
0	117042	1103	822
0	117056	1103	821
0	117072	1103	820
0	117086	1103	819
0	117102	1103	818
0	117116	1103	817
0	117132	1103	816
0	117146	1103	815
0	117162	1103	814
0	117176	1103	813
0	117192	1103	812
0	117206	1103	811
0	117222	1103	810
0	117236	1103	809
0	117252	1103	808
0	117266	1103	807
0	117282	1103	806
0	117296	1103	805
0	117312	1103	804
0	117326	1103	803
0	117342	1103	802
0	117356	1103	801
0	117372	1103	800
0	117386	1103	799
0	117402	1103	798
0	117416	1103	797
0	117432	1103	796
0	117446	1103	795
0	117462	1103	794
0	117476	1103	793
0	117492	1103	792
0	117506	1103	791
0	117522	1103	790
0	117536	1103	789
0	117552	1103	788
0	117566	1103	787
0	117582	1103	786
0	117596	1103	785
0	117612	1103	784
0	117626	1103	783
0	117642	1103	782
0	117656	1103	781
0	117672	1103	780
0	117686	1103	779
0	117702	1103	778
0	117716	1103	777
0	117732	1103	776
0	117746	1103	775
0	117762	1103	774
0	117776	1103	773
0	117792	1103	772
0	117806	1103	771
0	117822	1103	770
0	117836	1103	769
0	117852	1103	768
0	117866	1103	767
0	117882	1103	766
0	117896	1103	765
0	117912	1103	764
0	117926	1103	763
0	117942	1103	762
0	117956	1103	761
0	117972	1103	760
0	117986	1103	759
0	118002	1103	758
0	118016	1103	757
0	118032	1103	756
0	118046	1103	755
0	118062	1103	754
0	118076	1103	753
0	118092	1103	752
0	118106	1103	751
0	118122	1103	750
0	118136	1103	749
0	118152	1103	748
0	118166	1103	747
0	118182	1103	746
0	118196	1103	745
0	118212	1103	744
0	118226	1103	743
0	118242	1103	742
0	118256	1103	741
0	118272	1103	740
0	118286	1103	739
0	118302	1103	738
0	118316	1103	737
0	118332	1103	736
0	118346	1103	735
0	118362	1103	734
0	118376	1103	733
0	118392	1103	732
0	118406	1103	731
0	118422	1103	730
0	118436	1103	729
0	118452	1103	629
0	118466	1103	728
0	118482	1103	628
0	118496	1103	727
0	118512	1103	627
0	118526	1103	726
0	118542	1103	626
0	118556	1103	725
0	118572	1103	625
0	118586	1103	724
0	118602	1103	624
0	118616	1103	723
0	118632	1103	623
0	118646	1103	722
0	118662	1103	622
0	118676	1103	721
0	118692	1103	621
0	118706	1103	720
0	118722	1103	620
0	118736	1103	719
0	118752	1103	619
0	118766	1103	718
0	118782	1103	618
0	118796	1103	717
0	118812	1103	617
0	118826	1103	716
0	118842	1103	616
0	118856	1103	715
0	118872	1103	615
0	118886	1103	714
0	118902	1103	614
0	118916	1103	713
0	118932	1103	613
0	118946	1103	712
0	118962	1103	612
0	118976	1103	711
0	118992	1103	611
0	119006	1103	710
0	119022	1103	610
0	119036	1103	709
0	119052	1103	609
0	119066	1103	708
0	119082	1103	608
0	119096	1103	707
0	119112	1103	607
0	119126	1103	706
0	119142	1103	606
0	119156	1103	705
0	119172	1103	605
0	119186	1103	704
0	119202	1103	604
0	119216	1103	703
0	119232	1103	603
0	119246	1103	702
0	119262	1103	602
0	119276	1103	701
0	119292	1103	601
0	119306	1103	700
0	119322	1103	600
0	119336	1103	699
0	119352	1103	599
0	119366	1103	698
0	119382	1103	598
0	119396	1103	697
0	119412	1103	597
0	119426	1103	696
0	119442	1103	596
0	119456	1103	695
0	119472	1103	595
0	119486	1103	694
0	119502	1103	594
0	119516	1103	693
0	119532	1103	593
0	119546	1103	692
0	119562	1103	592
0	119576	1103	691
0	119592	1103	591
0	119606	1103	690
0	119622	1103	590
0	119636	1103	689
0	119652	1103	589
0	119666	1103	688
0	119682	1103	588
0	119696	1103	687
0	119712	1103	587
0	119726	1103	686
0	119742	1103	586
0	119756	1103	685
0	119772	1103	585
0	119786	1103	684
0	119802	1103	584
0	119816	1103	683
0	119832	1103	583
0	119846	1103	682
0	119862	1103	582
0	119876	1103	681
0	119892	1103	581
0	119906	1103	680
0	119922	1103	580
0	119936	1103	679
0	119952	1103	579
0	119966	1103	678
0	119982	1103	578
0	119996	1103	677
0	120012	1103	577
0	120026	1103	676
0	120042	1103	576
0	120056	1103	675
0	120072	1103	575
0	120086	1103	674
0	120102	1103	574
0	120116	1103	673
0	120132	1103	573
0	120146	1103	672
0	120162	1103	572
0	120176	1103	671
0	120192	1103	571
0	120206	1103	670
0	120222	1103	570
0	120236	1103	669
0	120252	1103	569
0	120266	1103	668
0	120282	1103	568
0	120296	1103	667
0	120312	1103	567
0	120326	1103	666
0	120342	1103	566
0	120356	1103	665
0	120372	1103	565
0	120386	1103	664
0	120402	1103	564
0	120416	1103	663
0	120432	1103	563
0	120446	1103	662
0	120462	1103	562
0	120476	1103	661
0	120492	1103	561
0	120506	1103	660
0	120522	1103	560
0	120536	1103	659
0	120552	1103	559
0	120566	1103	658
0	120582	1103	558
0	120596	1103	657
0	120612	1103	557
0	120626	1103	656
0	120642	1103	556
0	120656	1103	655
0	120672	1103	555
0	120686	1103	654
0	120702	1103	554
0	120716	1103	653
0	120732	1103	553
0	120746	1103	652
0	120762	1103	552
0	120776	1103	651
0	120792	1103	551
0	120806	1103	650
0	120822	1103	550
0	120836	1103	649
0	120852	1103	549
0	120866	1103	648
0	120882	1103	548
0	120896	1103	647
0	120912	1103	547
0	120926	1103	646
0	120942	1103	546
0	120956	1103	645
0	120972	1103	545
0	120986	1103	644
0	121002	1103	544
0	121016	1103	643
0	121032	1103	543
0	121046	1103	642
0	121062	1103	542
0	121076	1103	641
0	121092	1103	541
0	121106	1103	640
0	121122	1103	540
0	121136	1103	539
0	121152	1103	538
0	121166	1103	537
0	121182	1103	536
0	121196	1103	535
0	121212	1103	534
0	121226	1103	533
0	121242	1103	532
0	121256	1103	531
0	121272	1103	530
0	121286	1103	529
0	121302	1103	528
0	121316	1103	527
0	121332	1103	526
0	121346	1103	525
0	121362	1103	524
0	121376	1103	523
0	121392	1103	522
0	121406	1103	521
0	121422	1103	520
0	121436	1103	519
0	121452	1103	518
0	121466	1103	517
0	121482	1103	516
0	121496	1103	515
0	121512	1103	514
0	121526	1103	513
0	121542	1103	512
0	121556	1103	511
0	121572	1103	510
0	121586	1103	509
0	121602	1103	508
0	121616	1103	507
0	121632	1103	506
0	121646	1103	505
0	121662	1103	504
0	121676	1103	503
0	121692	1103	502
0	121706	1103	501
0	121722	1103	500
0	121736	1103	499
0	121752	1103	498
0	121766	1103	497
0	121782	1103	496
0	121796	1103	495
0	121812	1103	494
0	121826	1103	493
0	121842	1103	492
0	121856	1103	491
0	121872	1103	490
0	121886	1103	489
0	121902	1103	488
0	121916	1103	487
0	121932	1103	486
0	121946	1103	485
0	121962	1103	484
0	121976	1103	483
0	121992	1103	482
0	122006	1103	481
0	122022	1103	480
0	122036	1103	479
0	122052	1103	478
0	122066	1103	477
0	122082	1103	476
0	122096	1103	475
0	122112	1103	474
0	122126	1103	473
0	122142	1103	472
0	122156	1103	471
0	122172	1103	470
0	122186	1103	469
0	122202	1103	468
0	122216	1103	467
0	122232	1103	466
0	122246	1103	465
0	122262	1103	464
0	122276	1103	463
0	122292	1103	462
0	122306	1103	461
0	122322	1103	460
0	122336	1103	459
0	122352	1103	458
0	122366	1103	457
0	122382	1103	456
0	122396	1103	455
0	122412	1103	454
0	122426	1103	453
0	122442	1103	452
0	122456	1103	451
0	122472	1103	450
0	122486	1103	449
0	122502	1103	448
0	122516	1103	447
0	122532	1103	446
0	122546	1103	445
0	122562	1103	444
0	122576	1103	443
0	122592	1103	442
0	122606	1103	441
0	122622	1103	440
0	122636	1103	439
0	122652	1103	438
0	122666	1103	437
0	122682	1103	436
0	122696	1103	435
0	122712	1103	434
0	122726	1103	433
0	122742	1103	432
0	122756	1103	431
0	122772	1103	430
0	122786	1103	429
0	122802	1103	428
0	122816	1103	427
0	122832	1103	426
0	122846	1103	425
0	122862	1103	424
0	122876	1103	423
0	122892	1103	422
0	122906	1103	421
0	122922	1103	420
0	122936	1103	419
0	122952	1103	418
0	122966	1103	417
0	122982	1103	416
0	122996	1103	415
0	123012	1103	414
0	123026	1103	413
0	123042	1103	412
0	123056	1103	411
0	123072	1103	410
0	123086	1103	409
0	123102	1103	408
0	123116	1103	407
0	123132	1103	406
0	123146	1103	405
0	123162	1103	404
0	123176	1103	403
0	123192	1103	402
0	123206	1103	401
0	123222	1103	400
0	123236	1103	399
0	123252	1103	398
0	123266	1103	397
0	123282	1103	396
0	123296	1103	395
0	123312	1103	394
0	123326	1103	393
0	123342	1103	392
0	123356	1103	391
0	123372	1103	390
0	123386	1103	389
0	123402	1103	388
0	123416	1103	387
0	123432	1103	386
0	123446	1103	385
0	123462	1103	384
0	123476	1103	383
0	123492	1103	382
0	123506	1103	381
0	123522	1103	380
0	123536	1103	379
0	123552	1103	378
0	123566	1103	377
0	123582	1103	376
0	123596	1103	375
0	123612	1103	374
0	123626	1103	373
0	123642	1103	372
0	123656	1103	371
0	123672	1103	370
0	123686	1103	369
0	123702	1103	368
0	123716	1103	367
0	123732	1103	366
0	123746	1103	365
0	123762	1103	364
0	123776	1103	363
0	123792	1103	362
0	123806	1103	361
0	123822	1103	360
0	123836	1103	359
0	123852	1103	358
0	123866	1103	357
0	123882	1103	257
0	123896	1103	157
0	123912	1103	356
0	123926	1103	256
0	123942	1103	156
0	123956	1103	355
0	123972	1103	255
0	123986	1103	155
0	124002	1103	354
0	124016	1103	254
0	124032	1103	154
0	124046	1103	353
0	124062	1103	253
0	124076	1103	153
0	124092	1103	352
0	124106	1103	252
0	124122	1103	152
0	124136	1103	351
0	124152	1103	251
0	124166	1103	151
0	124182	1103	350
0	124196	1103	250
0	124212	1103	150
0	124226	1103	349
0	124242	1103	249
0	124256	1103	149
0	124272	1103	348
0	124286	1103	248
0	124302	1103	148
0	124316	1103	347
0	124332	1103	247
0	124346	1103	147
0	124362	1103	346
0	124376	1103	246
0	124392	1103	146
0	124406	1103	345
0	124422	1103	245
0	124436	1103	145
0	124452	1103	344
0	124466	1103	244
0	124482	1103	144
0	124496	1103	343
0	124512	1103	243
0	124526	1103	143
0	124542	1103	342
0	124556	1103	242
0	124572	1103	142
0	124586	1103	341
0	124602	1103	241
0	124616	1103	141
0	124632	1103	340
0	124646	1103	240
0	124662	1103	140
0	124676	1103	339
0	124692	1103	239
0	124706	1103	139
0	124722	1103	338
0	124736	1103	238
0	124752	1103	138
0	124766	1103	337
0	124782	1103	237
0	124796	1103	137
0	124812	1103	336
0	124826	1103	236
0	124842	1103	136
0	124856	1103	335
0	124872	1103	235
0	124886	1103	135
0	124902	1103	334
0	124916	1103	234
0	124932	1103	134
0	124946	1103	333
0	124962	1103	233
0	124976	1103	133
0	124992	1103	332
0	125006	1103	232
0	125022	1103	132
0	125036	1103	331
0	125052	1103	231
0	125066	1103	131
0	125082	1103	330
0	125096	1103	230
0	125112	1103	130
0	125126	1103	329
0	125142	1103	229
0	125156	1103	129
0	125172	1103	328
0	125186	1103	228
0	125202	1103	128
0	125216	1103	327
0	125232	1103	227
0	125246	1103	127
0	125262	1103	326
0	125276	1103	226
0	125292	1103	126
0	125306	1103	325
0	125322	1103	225
0	125336	1103	125
0	125352	1103	324
0	125366	1103	224
0	125382	1103	124
0	125396	1103	323
0	125412	1103	223
0	125426	1103	123
0	125442	1103	322
0	125456	1103	222
0	125472	1103	122
0	125486	1103	321
0	125502	1103	221
0	125516	1103	121
0	125532	1103	320
0	125546	1103	220
0	125562	1103	120
0	125576	1103	319
0	125592	1103	219
0	125606	1103	119
0	125622	1103	318
0	125636	1103	218
0	125652	1103	118
0	125666	1103	317
0	125682	1103	217
0	125696	1103	117
0	125712	1103	316
0	125726	1103	216
0	125742	1103	116
0	125756	1103	315
0	125772	1103	215
0	125786	1103	115
0	125802	1103	314
0	125816	1103	214
0	125832	1103	114
0	125846	1103	313
0	125862	1103	213
0	125876	1103	113
0	125892	1103	312
0	125906	1103	212
0	125922	1103	112
0	125936	1103	311
0	125952	1103	211
0	125966	1103	111
0	125982	1103	210
0	125996	1103	110
0	126012	1103	209
0	126026	1103	109
0	126042	1103	108
0	126056	1103	107
0	126072	1103	106
0	126086	1103	105
0	126102	1103	104
0	126116	1103	203
0	126132	1103	103
0	126146	1103	202
0	126162	1103	102
0	126176	1103	101
0	127818	1104	201
0	127830	1104	101
0	127877	1105	201
0	127889	1105	101
0	127936	1106	201
0	127948	1106	101
0	127995	1107	201
0	128007	1107	101
0	128056	1108	201
0	128068	1108	101
0	128116	1109	201
0	128128	1109	101
0	128176	1110	201
0	128188	1110	101
0	128236	1111	201
0	128248	1111	101
0	128295	1112	201
0	128305	1112	101
0	128348	1113	101
0	128385	1114	101
0	128422	1115	101
0	128459	1116	101
0	128495	1117	101
0	128529	1118	101
0	128559	1119	101
0	128589	1120	101
0	128619	1121	101
0	128660	1122	101
0	128702	1123	101
0	128734	1124	101
0	128766	1125	101
0	128798	1126	101
0	128830	1127	101
0	128858	1128	101
0	128884	1129	101
0	128910	1130	101
0	128936	1131	101
0	128962	1132	101
0	128988	1133	101
0	129014	1134	101
0	129040	1135	101
0	129066	1136	101
0	129092	1137	101
0	129118	1138	101
0	129144	1139	101
0	129170	1140	101
0	129196	1141	101
0	129222	1142	101
0	129244	1143	101
0	129363	1152	109
0	129370	1152	108
0	129383	1152	107
0	129394	1152	106
0	129407	1152	105
0	129418	1152	104
0	129431	1152	103
0	129442	1152	102
0	129455	1152	101
0	129483	1153	101
0	161891	1430	413
0	161908	1430	412
0	161932	1430	411
0	161953	1430	410
0	161977	1430	409
0	161998	1430	408
0	162022	1430	407
0	162043	1430	406
0	162067	1430	405
0	162088	1430	404
0	162112	1430	403
0	162133	1430	402
0	162157	1430	401
0	162178	1430	400
0	162202	1430	399
0	162223	1430	398
0	162247	1430	397
0	162268	1430	396
0	162292	1430	395
0	162313	1430	394
0	162337	1430	393
0	162358	1430	392
0	162382	1430	391
0	162403	1430	390
0	162427	1430	389
0	162448	1430	388
0	162472	1430	387
0	162493	1430	386
0	162517	1430	385
0	162538	1430	384
0	162562	1430	383
0	162583	1430	382
0	162607	1430	381
0	162628	1430	380
0	162652	1430	379
0	162673	1430	378
0	162697	1430	376
0	162718	1430	375
0	162742	1430	374
0	162763	1430	373
0	162787	1430	372
0	162808	1430	371
0	162832	1430	370
0	162853	1430	369
0	162877	1430	368
0	162898	1430	367
0	162922	1430	366
0	162943	1430	365
0	162967	1430	364
0	162988	1430	363
0	163012	1430	362
0	163033	1430	361
0	163057	1430	360
0	163078	1430	359
0	163102	1430	358
0	163123	1430	357
0	163147	1430	356
0	163168	1430	355
0	163192	1430	354
0	163213	1430	353
0	163237	1430	352
0	163258	1430	351
0	163282	1430	350
0	163303	1430	349
0	163327	1430	348
0	163348	1430	347
0	163372	1430	346
0	163393	1430	345
0	163417	1430	344
0	163438	1430	343
0	163462	1430	342
0	163483	1430	341
0	163507	1430	340
0	163528	1430	339
0	163552	1430	338
0	163573	1430	337
0	163597	1430	336
0	163618	1430	335
0	163642	1430	334
0	163663	1430	333
0	163687	1430	332
0	163708	1430	331
0	163732	1430	330
0	163753	1430	329
0	163777	1430	502
0	163798	1430	501
0	163822	1430	500
0	163843	1430	499
0	163867	1430	498
0	163888	1430	497
0	163912	1430	496
0	163933	1430	495
0	163957	1430	494
0	163978	1430	493
0	164002	1430	492
0	164023	1430	491
0	164047	1430	490
0	164068	1430	489
0	164092	1430	488
0	164113	1430	637
0	164137	1430	636
0	164158	1430	635
0	164182	1430	634
0	164203	1430	633
0	164227	1430	632
0	164248	1430	631
0	164272	1430	630
0	164293	1430	629
0	164317	1430	628
0	164338	1430	627
0	164362	1430	626
0	164383	1430	625
0	164407	1430	624
0	164428	1430	623
0	164452	1430	622
0	164473	1430	621
0	164497	1430	620
0	164518	1430	619
0	164542	1430	618
0	164563	1430	617
0	164587	1430	616
0	164608	1430	615
0	164632	1430	614
0	164653	1430	613
0	164677	1430	612
0	164698	1430	611
0	164722	1430	610
0	164743	1430	609
0	164767	1430	608
0	164788	1430	607
0	164812	1430	606
0	164833	1430	605
0	164857	1430	604
0	164878	1430	603
0	164902	1430	602
0	164923	1430	601
0	164947	1430	600
0	164968	1430	599
0	164992	1430	598
0	165013	1430	597
0	165037	1430	596
0	165058	1430	595
0	165082	1430	594
0	165103	1430	593
0	165127	1430	592
0	165148	1430	591
0	165172	1430	590
0	165193	1430	589
0	165217	1430	588
0	165238	1430	587
0	165262	1430	487
0	165283	1430	586
0	165307	1430	486
0	165328	1430	585
0	165352	1430	485
0	165373	1430	966
0	165397	1430	965
0	165418	1430	964
0	165442	1430	963
0	165463	1430	962
0	165487	1430	961
0	165508	1430	960
0	165532	1430	959
0	165553	1430	958
0	165577	1430	957
0	165598	1430	1322
0	165622	1430	1222
0	165643	1430	1321
0	165667	1430	1221
0	165688	1430	1320
0	165712	1430	1220
0	165733	1430	1319
0	165757	1430	1219
0	165778	1430	1318
0	165802	1430	1218
0	165823	1430	1317
0	165847	1430	1217
0	165868	1430	1316
0	165892	1430	1216
0	165913	1430	1315
0	165937	1430	1215
0	165958	1430	1314
0	165982	1430	1214
0	166003	1430	1313
0	166027	1430	1213
0	166048	1430	1312
0	166072	1430	1212
0	166093	1430	1311
0	166117	1430	1211
0	166138	1430	1310
0	166162	1430	1210
0	166183	1430	1309
0	166207	1430	1209
0	166228	1430	1308
0	166252	1430	1208
0	166273	1430	1307
0	166297	1430	1207
0	166318	1430	1306
0	166342	1430	1206
0	166363	1430	1305
0	166387	1430	1205
0	166408	1430	1304
0	166432	1430	1204
0	166453	1430	1303
0	166477	1430	1203
0	166498	1430	1302
0	166522	1430	1202
0	166543	1430	1301
0	166567	1430	1201
0	166588	1430	1300
0	166612	1430	1200
0	166633	1430	1299
0	166657	1430	1199
0	166678	1430	1298
0	166702	1430	1198
0	166723	1430	1297
0	166747	1430	1197
0	166768	1430	1296
0	166792	1430	1196
0	166813	1430	1295
0	166837	1430	1195
0	166858	1430	1294
0	166882	1430	1194
0	166903	1430	1293
0	166927	1430	1193
0	166948	1430	1292
0	166972	1430	1192
0	166993	1430	1291
0	167017	1430	1191
0	167038	1430	1290
0	167062	1430	1190
0	167083	1430	1289
0	167107	1430	1189
0	167128	1430	1288
0	167152	1430	1188
0	167173	1430	1187
0	167197	1430	1186
0	167218	1430	1185
0	167242	1430	1184
0	167263	1430	1183
0	167287	1430	1182
0	167308	1430	1181
0	167332	1430	1180
0	167353	1430	1179
0	167377	1430	1178
0	167398	1430	1177
0	167422	1430	1176
0	167443	1430	1175
0	167467	1430	1174
0	167488	1430	1173
0	167512	1430	1172
0	167533	1430	1171
0	167557	1430	1170
0	167578	1430	1169
0	167602	1430	1168
0	167623	1430	1167
0	167647	1430	1166
0	167668	1430	1165
0	167692	1430	1164
0	167713	1430	1163
0	167737	1430	1162
0	167758	1430	1161
0	167782	1430	1160
0	167803	1430	1159
0	167827	1430	1158
0	167848	1430	1157
0	167872	1430	1156
0	167893	1430	1155
0	167917	1430	1154
0	167938	1430	1153
0	167962	1430	1152
0	167983	1430	1151
0	168007	1430	1150
0	168028	1430	1149
0	168052	1430	1148
0	168073	1430	1147
0	168097	1430	1146
0	168118	1430	1145
0	168142	1430	1144
0	168163	1430	1143
0	168187	1430	1142
0	168208	1430	1141
0	168232	1430	1140
0	168253	1430	1139
0	168277	1430	1138
0	168298	1430	1137
0	168322	1430	1136
0	168343	1430	1135
0	168367	1430	1134
0	168388	1430	1133
0	168412	1430	1132
0	168433	1430	1131
0	168457	1430	1130
0	168478	1430	1129
0	168502	1430	1128
0	168523	1430	1127
0	168547	1430	1126
0	168568	1430	1125
0	168592	1430	1124
0	168613	1430	1123
0	168637	1430	1122
0	168658	1430	1121
0	168682	1430	1120
0	168703	1430	1119
0	168727	1430	1118
0	168748	1430	1117
0	168772	1430	1116
0	168793	1430	1115
0	168817	1430	1114
0	168838	1430	1113
0	168862	1430	1112
0	168883	1430	1111
0	168907	1430	1110
0	168928	1430	1109
0	168952	1430	1108
0	168973	1430	1107
0	168997	1430	1106
0	169018	1430	1105
0	169042	1430	1104
0	169063	1430	1103
0	169087	1430	1102
0	169108	1430	1101
0	169132	1430	1100
0	169153	1430	1099
0	169177	1430	1098
0	169198	1430	1097
0	169222	1430	1096
0	169243	1430	1095
0	169267	1430	1094
0	169288	1430	1093
0	169312	1430	1092
0	169333	1430	1091
0	169357	1430	1090
0	169378	1430	1089
0	169402	1430	1088
0	169423	1430	1087
0	169447	1430	1086
0	169468	1430	1085
0	169492	1430	1084
0	169513	1430	1083
0	169537	1430	1082
0	169558	1430	1081
0	169582	1430	1080
0	169603	1430	1079
0	169627	1430	1078
0	169648	1430	1077
0	169672	1430	1076
0	169693	1430	1075
0	169717	1430	1074
0	169738	1430	1073
0	169762	1430	1072
0	169783	1430	1071
0	169807	1430	1070
0	169828	1430	1069
0	169852	1430	1068
0	169873	1430	1067
0	169897	1430	1066
0	169918	1430	1065
0	169942	1430	1064
0	169963	1430	1063
0	169987	1430	1062
0	170008	1430	1061
0	170032	1430	1060
0	170053	1430	1059
0	170077	1430	1058
0	170098	1430	1057
0	170122	1430	1056
0	170143	1430	956
0	170167	1430	1055
0	170188	1430	955
0	170212	1430	1054
0	170233	1430	954
0	170257	1430	1053
0	170278	1430	953
0	170302	1430	1052
0	170323	1430	952
0	170347	1430	1051
0	170368	1430	951
0	170392	1430	1050
0	170413	1430	950
0	170437	1430	1049
0	170458	1430	949
0	170482	1430	1048
0	170503	1430	948
0	170527	1430	1047
0	170548	1430	947
0	170572	1430	1046
0	170593	1430	946
0	170617	1430	1045
0	170638	1430	945
0	170662	1430	1044
0	170683	1430	944
0	170707	1430	1043
0	170728	1430	943
0	170752	1430	1042
0	170773	1430	942
0	170797	1430	1041
0	170818	1430	941
0	170842	1430	1040
0	170863	1430	940
0	170887	1430	1039
0	170908	1430	939
0	170932	1430	1038
0	170953	1430	938
0	170977	1430	1037
0	170998	1430	937
0	171022	1430	1036
0	171043	1430	936
0	171067	1430	1035
0	171088	1430	935
0	171112	1430	1034
0	171133	1430	934
0	171157	1430	1033
0	171178	1430	933
0	171202	1430	1032
0	171223	1430	932
0	171247	1430	1031
0	171268	1430	931
0	171292	1430	1030
0	171313	1430	930
0	171337	1430	1029
0	171358	1430	929
0	171382	1430	1028
0	171403	1430	928
0	171427	1430	1027
0	171448	1430	927
0	171472	1430	1026
0	171493	1430	926
0	171517	1430	1025
0	171538	1430	925
0	171562	1430	1024
0	171583	1430	924
0	171607	1430	1023
0	171628	1430	923
0	171652	1430	1022
0	171673	1430	922
0	171697	1430	1021
0	171718	1430	921
0	171742	1430	1020
0	171763	1430	920
0	171787	1430	1019
0	171808	1430	919
0	171832	1430	1018
0	171853	1430	918
0	171877	1430	1017
0	171898	1430	917
0	171922	1430	1016
0	171943	1430	916
0	171967	1430	1015
0	171988	1430	915
0	172012	1430	1014
0	172033	1430	914
0	172057	1430	1013
0	172078	1430	913
0	172102	1430	1012
0	172123	1430	912
0	172147	1430	1011
0	172168	1430	911
0	172192	1430	1010
0	172213	1430	910
0	172237	1430	1009
0	172258	1430	909
0	172282	1430	1008
0	172303	1430	908
0	172327	1430	1007
0	172348	1430	907
0	172372	1430	1006
0	172393	1430	906
0	172417	1430	1005
0	172438	1430	905
0	172462	1430	1004
0	172483	1430	904
0	172507	1430	1003
0	172528	1430	903
0	172552	1430	1002
0	172573	1430	902
0	172597	1430	1001
0	172618	1430	901
0	172642	1430	1000
0	172663	1430	900
0	172687	1430	999
0	172708	1430	899
0	172732	1430	998
0	172753	1430	898
0	172777	1430	997
0	172798	1430	897
0	172822	1430	996
0	172843	1430	896
0	172867	1430	995
0	172888	1430	895
0	172912	1430	994
0	172933	1430	894
0	172957	1430	993
0	172978	1430	893
0	173002	1430	992
0	173023	1430	892
0	173047	1430	991
0	173068	1430	891
0	173092	1430	990
0	173113	1430	890
0	173137	1430	989
0	173158	1430	889
0	173182	1430	988
0	173203	1430	888
0	173227	1430	987
0	173248	1430	887
0	173272	1430	986
0	173293	1430	886
0	173317	1430	985
0	173338	1430	885
0	173362	1430	984
0	173383	1430	884
0	173407	1430	983
0	173428	1430	883
0	173452	1430	982
0	173473	1430	882
0	173497	1430	981
0	173518	1430	881
0	173542	1430	980
0	173563	1430	880
0	173587	1430	979
0	173608	1430	879
0	173632	1430	978
0	173653	1430	878
0	173677	1430	977
0	173698	1430	877
0	173722	1430	976
0	173743	1430	876
0	173767	1430	975
0	173788	1430	875
0	173812	1430	974
0	173833	1430	874
0	173857	1430	973
0	173878	1430	873
0	173902	1430	972
0	173923	1430	872
0	173947	1430	971
0	173968	1430	871
0	173992	1430	970
0	174013	1430	870
0	174037	1430	969
0	174058	1430	869
0	174082	1430	968
0	174103	1430	868
0	174127	1430	967
0	174148	1430	867
0	174172	1430	866
0	174193	1430	865
0	174217	1430	864
0	174238	1430	863
0	174262	1430	862
0	174283	1430	861
0	174307	1430	860
0	174328	1430	859
0	174352	1430	858
0	174373	1430	857
0	174397	1430	856
0	174418	1430	855
0	174442	1430	854
0	174463	1430	853
0	174487	1430	852
0	174508	1430	851
0	174532	1430	850
0	174553	1430	849
0	174577	1430	848
0	174598	1430	847
0	174622	1430	846
0	174643	1430	845
0	174667	1430	844
0	174688	1430	843
0	174712	1430	842
0	174733	1430	841
0	174757	1430	840
0	174778	1430	839
0	174802	1430	838
0	174823	1430	837
0	174847	1430	836
0	174868	1430	835
0	174892	1430	834
0	174913	1430	833
0	174937	1430	832
0	174958	1430	831
0	174982	1430	830
0	175003	1430	829
0	175027	1430	828
0	175048	1430	827
0	175072	1430	826
0	175093	1430	825
0	175117	1430	824
0	175138	1430	823
0	175162	1430	822
0	175183	1430	821
0	175207	1430	820
0	175228	1430	819
0	175252	1430	818
0	175273	1430	817
0	175297	1430	816
0	175318	1430	815
0	175342	1430	814
0	175363	1430	813
0	175387	1430	812
0	175408	1430	811
0	175432	1430	810
0	175453	1430	809
0	175477	1430	808
0	175498	1430	807
0	175522	1430	806
0	175543	1430	805
0	175567	1430	804
0	175588	1430	803
0	175612	1430	802
0	175633	1430	801
0	175657	1430	800
0	175678	1430	799
0	175702	1430	798
0	175723	1430	797
0	175747	1430	796
0	175768	1430	795
0	175792	1430	794
0	175813	1430	793
0	175837	1430	792
0	175858	1430	791
0	175882	1430	790
0	175903	1430	789
0	175927	1430	788
0	175948	1430	787
0	175972	1430	786
0	175993	1430	785
0	176017	1430	784
0	176038	1430	783
0	176062	1430	782
0	176083	1430	781
0	176107	1430	780
0	176128	1430	779
0	176152	1430	778
0	176173	1430	777
0	176197	1430	776
0	176218	1430	775
0	176242	1430	774
0	176263	1430	773
0	176287	1430	772
0	176308	1430	771
0	176332	1430	770
0	176353	1430	769
0	176377	1430	768
0	176398	1430	767
0	176422	1430	766
0	176443	1430	765
0	176467	1430	764
0	176488	1430	763
0	176512	1430	762
0	176533	1430	761
0	176557	1430	760
0	176578	1430	759
0	176602	1430	758
0	176623	1430	757
0	176647	1430	756
0	176668	1430	755
0	176692	1430	754
0	176713	1430	753
0	176737	1430	752
0	176758	1430	751
0	176782	1430	750
0	176803	1430	749
0	176827	1430	748
0	176848	1430	747
0	176872	1430	746
0	176893	1430	745
0	176917	1430	744
0	176938	1430	743
0	176962	1430	742
0	176983	1430	741
0	177007	1430	740
0	177028	1430	739
0	177052	1430	738
0	177073	1430	737
0	177097	1430	736
0	177118	1430	735
0	177142	1430	734
0	177163	1430	733
0	177187	1430	732
0	177208	1430	731
0	177232	1430	730
0	177253	1430	729
0	177277	1430	728
0	177298	1430	727
0	177322	1430	726
0	177343	1430	725
0	177367	1430	724
0	177388	1430	723
0	177412	1430	722
0	177433	1430	721
0	177457	1430	720
0	177478	1430	719
0	177502	1430	718
0	177523	1430	717
0	177547	1430	716
0	177568	1430	715
0	177592	1430	714
0	177613	1430	713
0	177637	1430	712
0	177658	1430	711
0	177682	1430	710
0	177703	1430	709
0	177727	1430	708
0	177748	1430	707
0	177772	1430	706
0	177793	1430	705
0	177817	1430	704
0	177838	1430	703
0	177862	1430	702
0	177883	1430	701
0	177907	1430	700
0	177928	1430	699
0	177952	1430	698
0	177973	1430	697
0	177997	1430	696
0	178018	1430	695
0	178042	1430	694
0	178063	1430	693
0	178087	1430	692
0	178108	1430	691
0	178132	1430	690
0	178153	1430	689
0	178177	1430	688
0	178198	1430	687
0	178222	1430	686
0	178243	1430	685
0	178267	1430	684
0	178288	1430	584
0	178312	1430	484
0	178333	1430	683
0	178357	1430	583
0	178378	1430	483
0	178402	1430	682
0	178423	1430	582
0	178447	1430	482
0	178468	1430	681
0	178492	1430	581
0	178513	1430	481
0	178537	1430	680
0	178558	1430	580
0	178582	1430	480
0	178603	1430	679
0	178627	1430	579
0	178648	1430	479
0	178672	1430	678
0	178693	1430	578
0	178717	1430	478
0	178738	1430	677
0	178762	1430	577
0	178783	1430	477
0	178807	1430	676
0	178828	1430	576
0	178852	1430	476
0	178873	1430	675
0	178897	1430	575
0	178918	1430	475
0	178942	1430	674
0	178963	1430	574
0	178987	1430	474
0	179008	1430	673
0	179032	1430	573
0	179053	1430	473
0	179077	1430	672
0	179098	1430	572
0	179122	1430	472
0	179143	1430	671
0	179167	1430	571
0	179188	1430	471
0	179212	1430	670
0	179233	1430	570
0	179257	1430	470
0	179278	1430	669
0	179302	1430	569
0	179323	1430	469
0	179347	1430	668
0	179368	1430	568
0	179392	1430	468
0	179413	1430	667
0	179437	1430	567
0	179458	1430	467
0	179482	1430	666
0	179503	1430	566
0	179527	1430	466
0	179548	1430	665
0	179572	1430	565
0	179593	1430	465
0	179617	1430	664
0	179638	1430	564
0	179662	1430	464
0	179683	1430	663
0	179707	1430	563
0	179728	1430	463
0	179752	1430	662
0	179773	1430	562
0	179797	1430	462
0	179818	1430	661
0	179842	1430	561
0	179863	1430	461
0	179887	1430	660
0	179908	1430	560
0	179932	1430	460
0	179953	1430	659
0	179977	1430	559
0	179998	1430	459
0	180022	1430	658
0	180043	1430	558
0	180067	1430	458
0	180088	1430	657
0	180112	1430	557
0	180133	1430	457
0	180157	1430	656
[...]
0	1427160	8860	97
0	1427183	8860	96
0	1427202	8860	95
0	1427225	8860	94
0	1427248	8860	93
0	1427267	8860	92
0	1427290	8860	91
0	1427313	8860	90
0	1427332	8860	89
0	1427355	8860	88
0	1427378	8860	87
0	1427397	8860	86
0	1427420	8860	85
0	1427443	8860	84
0	1427462	8860	83
0	1427485	8860	82
0	1427508	8860	81
0	1427527	8860	80
0	1427550	8860	79
0	1427573	8860	78
0	1427592	8860	77
0	1427615	8860	76
0	1427638	8860	75
0	1427657	8860	74
0	1427680	8860	73
0	1427703	8860	72
0	1427722	8860	71
0	1427745	8860	70
0	1427768	8860	69
0	1427787	8860	68
0	1427810	8860	67
0	1427833	8860	66
0	1427852	8860	65
0	1427875	8860	64
0	1427898	8860	63
0	1427917	8860	62
0	1427940	8860	61
0	1427963	8860	60
0	1427982	8860	59
0	1428005	8860	58
0	1428028	8860	57
0	1428047	8860	56
0	1428070	8860	55
0	1428093	8860	54
0	1428112	8860	53
0	1428135	8860	52
0	1428158	8860	51
0	1428177	8860	50
0	1428200	8860	49
0	1428223	8860	48
0	1428242	8860	47
0	1428265	8860	46
0	1428288	8860	45
0	1428307	8860	44
0	1428330	8860	43
0	1428353	8860	42
0	1428372	8860	41
0	1428395	8860	40
0	1428418	8860	39
0	1428437	8860	38
0	1428460	8860	37
0	1428483	8860	36
0	1428502	8860	35
0	1428525	8860	34
0	1428548	8860	33
0	1428567	8860	32
0	1428590	8860	31
0	1428613	8860	30
0	1428632	8860	29
0	1428655	8860	28
0	1428678	8860	27
0	1428697	8860	26
0	1428720	8860	25
0	1428743	8860	24
0	1428762	8860	23
0	1428785	8860	22
0	1428808	8860	21
0	1428827	8860	20
0	1428850	8860	19
0	1428873	8860	18
0	1428892	8860	17
0	1428915	8860	16
0	1428938	8860	15
0	1428957	8860	14
0	1428980	8860	13
0	1429003	8860	12
0	1429022	8860	11
0	1429045	8860	10
0	1429068	8860	9
0	1429087	8860	8
0	1429110	8860	7
0	1429133	8860	6
0	1429152	8860	5
0	1429175	8860	4
0	1429198	8860	3
0	1429217	8860	2
0	1429240	8860	1
0	1431566	8861	1
0	1433252	8862	1
0	1433318	8863	1
0	1433384	8864	1
0	1433446	8865	1
0	1433558	8868	3
0	1433585	8868	2
0	1433606	8868	1
0	1433680	8869	1
0	1433756	8870	1
0	1433823	8871	1
0	1433890	8872	1
0	1433957	8873	1
0	1434024	8874	1
0	1434091	8875	1
0	1434158	8876	1
0	1434225	8877	1
0	1434292	8878	1
0	1434356	8879	1
0	1434409	8880	1
0	1434460	8881	1
0	1434511	8882	1
0	1434562	8883	1
0	1434613	8884	1
0	1434664	8885	1
0	1434715	8886	1
0	1434766	8887	1
0	1434819	8888	1
0	1434871	8889	1
0	1434922	8890	1
0	1434973	8891	1
0	1435024	8892	1
0	1435077	8893	1
0	1435129	8894	1
0	1435181	8895	1
0	1435233	8896	1
0	1435285	8897	1
0	1435337	8898	1
0	1435389	8899	1
0	1435441	8900	1
0	1435493	8901	1
0	1435813	8902	1
0	1435866	8903	1
0	1435920	8904	1
0	1435960	8905	1
0	1435993	8906	1
0	1436026	8907	1
0	1436059	8908	1
0	1436092	8909	1
0	1436127	8910	1
0	1436167	8911	1
0	1436676	8912	1
0	1436715	8913	1
0	1436754	8914	1
0	1436793	8915	1
0	1436832	8916	1
0	1436871	8917	1
0	1436915	8918	1
0	1436951	8919	1
0	1436986	8920	1
0	1437021	8921	1
0	1437056	8922	1
0	1437091	8923	1
0	1437126	8924	1
0	1437160	8925	1
0	1437194	8926	1
0	1437228	8927	1
0	1437262	8928	1
0	1437296	8929	1
0	1437330	8930	1
0	1437364	8931	1
0	1437398	8932	1
0	1437432	8933	1
0	1437465	8934	1
0	1437498	8935	1
0	1437531	8936	1
0	1437564	8937	1
0	1437597	8938	1
0	1437631	8939	1
0	1437663	8940	1
0	1437695	8941	1
0	1437727	8942	1
0	1437759	8943	1
0	1437791	8944	1
0	1437823	8945	1
0	1437855	8946	1
0	1437887	8947	1
0	1437919	8948	1
0	1437951	8949	1
0	1437983	8950	1
0	1438012	8951	1
0	1438930	9004	101
0	1438944	9005	101
0	1444834	9153	202
0	1444850	9153	201
0	1444869	9153	200
0	1444883	9153	199
0	1444900	9153	198
0	1444914	9153	197
0	1444931	9153	196
0	1444945	9153	195
0	1444962	9153	194
0	1444976	9153	193
0	1444993	9153	192
0	1445007	9153	191
0	1445024	9153	190
0	1445038	9153	189
0	1445055	9153	188
0	1445069	9153	187
0	1445086	9153	186
0	1445100	9153	185
0	1445117	9153	184
0	1445131	9153	183
0	1445148	9153	182
0	1445162	9153	181
0	1445179	9153	180
0	1445193	9153	179
0	1445210	9153	178
0	1445224	9153	177
0	1445241	9153	176
0	1445255	9153	175
0	1445272	9153	174
0	1445286	9153	173
0	1445303	9153	172
0	1445317	9153	171
0	1445334	9153	170
0	1445348	9153	169
0	1445365	9153	168
0	1445379	9153	167
0	1445396	9153	166
0	1445410	9153	165
0	1445427	9153	164
0	1445441	9153	163
0	1445458	9153	162
0	1445472	9153	161
0	1445489	9153	160
0	1445503	9153	159
0	1445520	9153	158
0	1445534	9153	157
0	1445551	9153	156
0	1445565	9153	155
0	1445582	9153	154
0	1445596	9153	153
0	1445613	9153	152
0	1445627	9153	151
0	1445644	9153	150
0	1445658	9153	149
0	1445675	9153	248
0	1445689	9153	148
0	1445706	9153	247
0	1445720	9153	147
0	1445737	9153	246
0	1445751	9153	146
0	1445768	9153	245
0	1445782	9153	145
0	1445799	9153	244
0	1445813	9153	144
0	1445830	9153	243
0	1445844	9153	143
0	1445861	9153	242
0	1445875	9153	142
0	1445892	9153	241
0	1445906	9153	141
0	1445923	9153	240
0	1445937	9153	140
0	1445954	9153	239
0	1445968	9153	139
0	1445985	9153	238
0	1445999	9153	138
0	1446016	9153	237
0	1446030	9153	137
0	1446047	9153	236
0	1446061	9153	136
0	1446078	9153	235
0	1446092	9153	135
0	1446109	9153	234
0	1446123	9153	134
0	1446140	9153	233
0	1446154	9153	133
0	1446171	9153	232
0	1446185	9153	132
0	1446202	9153	231
0	1446216	9153	131
0	1446233	9153	230
0	1446247	9153	130
0	1446264	9153	229
0	1446278	9153	129
0	1446295	9153	228
0	1446309	9153	128
0	1446326	9153	227
0	1446340	9153	127
0	1446357	9153	226
0	1446371	9153	126
0	1446388	9153	225
0	1446402	9153	125
0	1446419	9153	224
0	1446433	9153	124
0	1446450	9153	223
0	1446464	9153	123
0	1446481	9153	222
0	1446495	9153	122
0	1446512	9153	221
0	1446526	9153	121
0	1446543	9153	220
0	1446557	9153	120
0	1446574	9153	219
0	1446588	9153	119
0	1446605	9153	218
0	1446619	9153	118
0	1446636	9153	217
0	1446650	9153	117
0	1446667	9153	216
0	1446681	9153	116
0	1446698	9153	215
0	1446712	9153	115
0	1446729	9153	214
0	1446743	9153	114
0	1446760	9153	213
0	1446774	9153	113
0	1446791	9153	212
0	1446805	9153	112
0	1446822	9153	211
0	1446836	9153	111
0	1446853	9153	210
0	1446867	9153	110
0	1446884	9153	209
0	1446898	9153	109
0	1446915	9153	208
0	1446929	9153	108
0	1446946	9153	207
0	1446960	9153	107
0	1446977	9153	206
0	1446991	9153	106
0	1447008	9153	205
0	1447022	9153	105
0	1447039	9153	204
0	1447053	9153	104
0	1447070	9153	203
0	1447084	9153	103
0	1447101	9153	102
0	1447115	9153	101
0	1447132	9153	100
0	1447146	9153	99
0	1447163	9153	98
0	1447177	9153	97
0	1447194	9153	96
0	1447208	9153	95
0	1447225	9153	94
0	1447239	9153	93
0	1447256	9153	92
0	1447270	9153	91
0	1447287	9153	90
0	1447301	9153	89
0	1447318	9153	88
0	1447332	9153	87
0	1447349	9153	86
0	1447363	9153	85
0	1447380	9153	84
0	1447394	9153	83
0	1447411	9153	82
0	1447425	9153	81
0	1447442	9153	80
0	1447456	9153	79
0	1447473	9153	78
0	1447487	9153	77
0	1447504	9153	76
0	1447518	9153	75
0	1447535	9153	74
0	1447549	9153	73
0	1447566	9153	72
0	1447580	9153	71
0	1447597	9153	70
0	1447611	9153	69
0	1447628	9153	68
0	1447642	9153	67
0	1447659	9153	66
0	1447673	9153	65
0	1447690	9153	64
0	1447704	9153	63
0	1447721	9153	62
0	1447735	9153	61
0	1447752	9153	60
0	1447766	9153	59
0	1447783	9153	58
0	1447797	9153	57
0	1447814	9153	56
0	1447828	9153	55
0	1447845	9153	54
0	1447859	9153	53
0	1447876	9153	52
0	1447890	9153	51
0	1447907	9153	50
0	1447921	9153	49
0	1447938	9153	48
0	1447952	9153	47
0	1447969	9153	46
0	1447983	9153	45
0	1448000	9153	44
0	1448014	9153	43
0	1448031	9153	42
0	1448045	9153	236
0	1448062	9153	235
0	1448076	9153	234
0	1448093	9153	233
0	1448107	9153	232
0	1448124	9153	231
0	1448138	9153	230
0	1448155	9153	229
0	1448169	9153	228
0	1448186	9153	227
0	1448200	9153	226
0	1448217	9153	225
0	1448231	9153	224
0	1448248	9153	223
0	1448262	9153	222
0	1448279	9153	221
0	1448293	9153	220
0	1448310	9153	219
0	1448324	9153	218
0	1448341	9153	217
0	1448355	9153	216
0	1448372	9153	215
0	1448386	9153	214
0	1448403	9153	213
0	1448417	9153	212
0	1448434	9153	211
0	1448448	9153	210
0	1448465	9153	209
0	1448479	9153	208
0	1448496	9153	207
0	1448510	9153	206
0	1448527	9153	205
0	1448541	9153	204
0	1448558	9153	203
0	1448572	9153	41
0	1448589	9153	40
0	1448603	9153	39
0	1448620	9153	38
0	1448634	9153	37
0	1448651	9153	36
0	1448665	9153	35
0	1448682	9153	34
0	1448696	9153	33
0	1448713	9153	32
0	1448727	9153	31
0	1448744	9153	30
0	1448758	9153	29
0	1448775	9153	28
0	1448789	9153	27
0	1448806	9153	26
0	1448820	9153	25
0	1448837	9153	24
0	1448851	9153	23
0	1448868	9153	22
0	1448882	9153	21
0	1448899	9153	20
0	1448913	9153	19
0	1448930	9153	18
0	1448944	9153	17
0	1448961	9153	16
0	1448975	9153	15
0	1448992	9153	14
0	1449006	9153	13
0	1449023	9153	12
0	1449037	9153	11
0	1449054	9153	10
0	1449068	9153	9
0	1449085	9153	8
0	1449099	9153	7
0	1449116	9153	6
0	1449130	9153	5
0	1449147	9153	4
0	1449161	9153	3
0	1449178	9153	2
0	1449192	9153	1
0	1449794	9154	1
0	1449838	9155	1
0	1449882	9156	1
0	1449927	9157	1
0	1449964	9158	1
0	1450006	9159	1
0	1450048	9160	1
0	1450090	9161	1
0	1450132	9162	1
0	1450174	9163	1
0	1450216	9164	1
0	1450259	9165	1
0	1450301	9166	1
0	1450343	9167	1
0	1450385	9168	1
0	1450427	9169	1
0	1450469	9170	1
0	1450511	9171	1
0	1450553	9172	1
0	1450595	9173	1
0	1450637	9174	1
0	1450679	9175	1
0	1450721	9176	1
0	1450763	9177	1
0	1450811	9178	1
0	1452451	9179	1
0	1452494	9180	1
0	1452537	9181	1
0	1452580	9182	1
0	1452623	9183	1
0	1452666	9184	1
0	1452709	9185	1
0	1452752	9186	1
0	1452795	9187	1
0	1452838	9188	1
0	1452881	9189	1
0	1452924	9190	1
0	1452967	9191	1
0	1453010	9192	1
0	1453053	9193	1
0	1453096	9194	1
0	1453139	9195	1
0	1453182	9196	1
0	1453225	9197	1
0	1453272	9198	1
0	1453520	9199	1
0	1453570	9200	1
0	1455426	9210	10
0	1455441	9210	9
0	1455462	9210	8
0	1455479	9210	7
0	1455497	9210	6
0	1455511	9210	5
0	1455528	9210	4
0	1455542	9210	3
0	1455559	9210	2
0	1455573	9210	1
0	1455713	9211	1
0	1455912	9212	1
0	1455975	9213	1
0	1456039	9214	1
0	1461619	9392	180
0	1461630	9392	178
0	1461653	9392	177
0	1461669	9392	176
0	1461692	9392	175
0	1461708	9392	174
0	1461731	9392	173
0	1461747	9392	172
0	1461770	9392	171
0	1461786	9392	170
0	1461809	9392	169
0	1461825	9392	168
0	1461848	9392	167
0	1461864	9392	166
0	1461887	9392	165
0	1461903	9392	164
0	1461926	9392	163
0	1461942	9392	162
0	1461965	9392	161
0	1461981	9392	160
0	1462004	9392	159
0	1462020	9392	158
0	1462043	9392	157
0	1462059	9392	156
0	1462082	9392	155
0	1462098	9392	154
0	1462121	9392	153
0	1462137	9392	152
0	1462160	9392	151
0	1462176	9392	150
0	1462199	9392	149
0	1462215	9392	148
0	1462238	9392	147
0	1462254	9392	146
0	1462277	9392	145
0	1462293	9392	144
0	1462316	9392	143
0	1462332	9392	142
0	1462355	9392	141
0	1462371	9392	140
0	1462394	9392	139
0	1462410	9392	138
0	1462433	9392	137
0	1462449	9392	136
0	1462472	9392	135
0	1462488	9392	134
0	1462511	9392	133
0	1462527	9392	132
0	1462550	9392	131
0	1462566	9392	130
0	1462589	9392	129
0	1462605	9392	128
0	1462628	9392	127
0	1462644	9392	126
0	1462667	9392	125
0	1462683	9392	124
0	1462706	9392	123
0	1462722	9392	122
0	1462745	9392	121
0	1462761	9392	120
0	1462784	9392	119
0	1462800	9392	118
0	1462823	9392	117
0	1462839	9392	116
0	1462862	9392	115
0	1462878	9392	114
0	1462901	9392	113
0	1462917	9392	112
0	1462940	9392	111
0	1462956	9392	110
0	1462979	9392	109
0	1462995	9392	108
0	1463018	9392	107
0	1463034	9392	106
0	1463057	9392	105
0	1463073	9392	104
0	1463096	9392	103
0	1463112	9392	102
0	1463135	9392	101
0	1463151	9392	100
0	1463174	9392	99
0	1463190	9392	98
0	1463213	9392	97
0	1463229	9392	96
0	1463252	9392	95
0	1463268	9392	94
0	1463291	9392	93
0	1463307	9392	92
0	1463330	9392	91
0	1463346	9392	90
0	1463369	9392	89
0	1463385	9392	88
0	1463408	9392	87
0	1463424	9392	86
0	1463447	9392	85
0	1463463	9392	84
0	1463486	9392	83
0	1463502	9392	82
0	1463525	9392	81
0	1463541	9392	80
0	1463564	9392	79
0	1463580	9392	78
0	1463603	9392	77
0	1463619	9392	76
0	1463642	9392	75
0	1463658	9392	74
0	1463681	9392	73
0	1463697	9392	72
0	1463720	9392	71
0	1463736	9392	70
0	1463759	9392	69
0	1463775	9392	68
0	1463798	9392	67
0	1463814	9392	66
0	1463837	9392	65
0	1463853	9392	64
0	1463876	9392	63
0	1463892	9392	62
0	1463915	9392	61
0	1463931	9392	60
0	1463954	9392	59
0	1463970	9392	58
0	1463993	9392	57
0	1464009	9392	56
0	1464032	9392	55
0	1464048	9392	54
0	1464071	9392	53
0	1464087	9392	52
0	1464110	9392	51
0	1464126	9392	50
0	1464149	9392	49
0	1464165	9392	48
0	1464188	9392	47
0	1464204	9392	46
0	1464227	9392	45
0	1464243	9392	44
0	1464266	9392	43
0	1464282	9392	42
0	1464305	9392	41
0	1464321	9392	40
0	1464344	9392	39
0	1464360	9392	38
0	1464383	9392	37
0	1464399	9392	36
0	1464422	9392	35
0	1464438	9392	34
0	1464461	9392	33
0	1464477	9392	32
0	1464500	9392	31
0	1464516	9392	30
0	1464539	9392	29
0	1464555	9392	28
0	1464578	9392	27
0	1464594	9392	26
0	1464617	9392	25
0	1464633	9392	24
0	1464656	9392	23
0	1464672	9392	22
0	1464695	9392	21
0	1464711	9392	20
0	1464734	9392	19
0	1464750	9392	18
0	1464773	9392	17
0	1475106	9781	405
0	1475115	9781	404
0	1475129	9781	403
0	1475153	9781	402
0	1475172	9781	401
0	1475196	9781	400
0	1475215	9781	399
0	1475239	9781	398
0	1475258	9781	397
0	1475282	9781	396
0	1475301	9781	395
0	1475325	9781	394
0	1475344	9781	393
0	1475368	9781	392
0	1475387	9781	391
0	1475411	9781	390
0	1475430	9781	389
0	1475454	9781	388
0	1475473	9781	387
0	1475497	9781	386
0	1475516	9781	385
0	1475540	9781	384
0	1475559	9781	383
0	1475583	9781	382
0	1475602	9781	381
0	1475626	9781	380
0	1475645	9781	379
0	1475669	9781	378
0	1475688	9781	377
0	1475712	9781	376
0	1475731	9781	375
0	1475755	9781	374
0	1475774	9781	373
0	1475798	9781	372
0	1475817	9781	371
0	1475841	9781	370
0	1475860	9781	369
0	1475884	9781	368
0	1475903	9781	367
0	1475927	9781	366
0	1475946	9781	365
0	1475970	9781	364
0	1475989	9781	363
0	1476013	9781	362
0	1476032	9781	361
0	1476056	9781	360
0	1476075	9781	359
0	1476099	9781	358
0	1476118	9781	357
0	1476142	9781	356
0	1476161	9781	355
0	1476185	9781	354
0	1476204	9781	353
0	1476228	9781	352
0	1476247	9781	351
0	1476271	9781	350
0	1476290	9781	349
0	1476314	9781	348
0	1476333	9781	347
0	1476357	9781	346
0	1476376	9781	345
0	1476400	9781	344
0	1476419	9781	343
0	1476443	9781	342
0	1476462	9781	341
0	1476486	9781	340
0	1476505	9781	339
0	1476529	9781	338
0	1476548	9781	337
0	1476572	9781	336
0	1476591	9781	335
0	1476615	9781	334
0	1476634	9781	333
0	1476658	9781	332
0	1476677	9781	331
0	1476701	9781	330
0	1476720	9781	329
0	1476744	9781	328
0	1476763	9781	327
0	1476787	9781	326
0	1476806	9781	325
0	1476830	9781	324
0	1476849	9781	323
0	1476873	9781	322
0	1476892	9781	321
0	1476916	9781	320
0	1476935	9781	319
0	1476959	9781	318
0	1476978	9781	317
0	1477002	9781	316
0	1477021	9781	315
0	1477045	9781	314
0	1477064	9781	313
0	1477088	9781	312
0	1477107	9781	311
0	1477131	9781	310
0	1477150	9781	309
0	1477174	9781	308
0	1477193	9781	307
0	1477217	9781	306
0	1477236	9781	305
0	1477260	9781	304
0	1477279	9781	303
0	1477303	9781	302
0	1477322	9781	301
0	1477346	9781	300
0	1477365	9781	299
0	1477389	9781	298
0	1477408	9781	297
0	1477432	9781	296
0	1477451	9781	295
0	1477475	9781	294
0	1477494	9781	293
0	1477518	9781	292
0	1477537	9781	291
0	1477561	9781	290
0	1477580	9781	289
0	1477604	9781	288
0	1477623	9781	287
0	1477647	9781	286
0	1477666	9781	285
0	1477690	9781	284
0	1477709	9781	283
0	1477733	9781	282
0	1477752	9781	281
0	1477776	9781	280
0	1477795	9781	279
0	1477819	9781	278
0	1477838	9781	277
0	1477862	9781	276
0	1477881	9781	275
0	1477905	9781	274
0	1477924	9781	273
0	1477948	9781	272
0	1477967	9781	271
0	1477991	9781	270
0	1478010	9781	269
0	1478034	9781	268
0	1478053	9781	267
0	1478077	9781	266
0	1478096	9781	265
0	1478120	9781	264
0	1478139	9781	263
0	1478163	9781	262
0	1478182	9781	261
0	1478206	9781	260
0	1478225	9781	259
0	1478249	9781	258
0	1478268	9781	257
0	1478292	9781	256
0	1478311	9781	255
0	1478335	9781	254
0	1478354	9781	253
0	1478378	9781	252
0	1478397	9781	251
0	1478421	9781	250
0	1478440	9781	249
0	1478464	9781	248
0	1478483	9781	247
0	1478507	9781	246
0	1478526	9781	245
0	1478550	9781	244
0	1478569	9781	243
0	1478593	9781	242
0	1478612	9781	241
0	1478636	9781	240
0	1478655	9781	239
0	1478679	9781	238
0	1478698	9781	237
0	1478722	9781	236
0	1478741	9781	235
0	1478765	9781	234
0	1478784	9781	233
0	1478808	9781	232
0	1478827	9781	231
0	1478851	9781	230
0	1478870	9781	229
0	1478894	9781	228
0	1478913	9781	227
0	1478937	9781	226
0	1478956	9781	225
0	1478980	9781	224
0	1478999	9781	223
0	1479023	9781	222
0	1479042	9781	221
0	1479066	9781	220
0	1479085	9781	219
0	1479109	9781	218
0	1479128	9781	217
0	1479152	9781	216
0	1479171	9781	215
0	1479195	9781	214
0	1479214	9781	213
0	1479238	9781	212
0	1479257	9781	211
0	1479281	9781	210
0	1479300	9781	209
0	1479324	9781	208
0	1479343	9781	207
0	1479367	9781	206
0	1479386	9781	205
0	1479410	9781	204
0	1479429	9781	203
0	1479453	9781	202
0	1479472	9781	201
0	1479496	9781	200
0	1479515	9781	199
0	1479539	9781	198
0	1479558	9781	197
0	1479582	9781	196
0	1479601	9781	195
0	1479625	9781	194
0	1479644	9781	193
0	1479668	9781	192
0	1479687	9781	191
0	1479711	9781	190
0	1479730	9781	189
0	1479754	9781	188
0	1479773	9781	187
0	1479797	9781	186
0	1479816	9781	185
0	1479840	9781	184
0	1479859	9781	183
0	1479883	9781	182
0	1479902	9781	181
0	1479926	9781	180
0	1479945	9781	179
0	1479969	9781	178
0	1479988	9781	177
0	1480012	9781	176
0	1480031	9781	175
0	1480055	9781	174
0	1480074	9781	173
0	1480098	9781	172
0	1480117	9781	171
0	1480141	9781	170
0	1480160	9781	169
0	1480184	9781	168
0	1480203	9781	167
0	1480227	9781	166
0	1480246	9781	165
0	1480270	9781	164
0	1480289	9781	163
0	1480313	9781	162
0	1480332	9781	161
0	1480356	9781	160
0	1480375	9781	159
0	1480399	9781	158
0	1480418	9781	157
0	1480442	9781	156
0	1480461	9781	155
0	1480485	9781	154
0	1480504	9781	153
0	1480528	9781	152
0	1480547	9781	151
0	1480571	9781	150
0	1480590	9781	149
0	1480614	9781	148
0	1480633	9781	147
0	1480657	9781	146
0	1480676	9781	145
0	1480700	9781	144
0	1480719	9781	143
0	1480743	9781	142
0	1480762	9781	141
0	1480786	9781	140
0	1480805	9781	139
0	1480829	9781	138
0	1480848	9781	137
0	1480872	9781	136
0	1480891	9781	135
0	1480915	9781	134
0	1480934	9781	133
0	1480958	9781	132
0	1480977	9781	131
0	1481001	9781	130
0	1481020	9781	129
0	1481044	9781	128
0	1481063	9781	127
0	1481087	9781	126
0	1481106	9781	125
0	1481130	9781	124
0	1481149	9781	123
0	1481173	9781	122
0	1481192	9781	221
0	1481216	9781	121
0	1481235	9781	220
0	1481259	9781	120
0	1481278	9781	219
0	1481302	9781	119
0	1481321	9781	218
0	1481345	9781	118
0	1481364	9781	217
0	1481388	9781	117
0	1481407	9781	216
0	1481431	9781	116
0	1481450	9781	215
0	1481474	9781	115
0	1481493	9781	214
0	1481517	9781	114
0	1481536	9781	213
0	1481560	9781	113
0	1481579	9781	212
0	1481603	9781	112
0	1481622	9781	211
0	1481646	9781	111
0	1481665	9781	210
0	1481689	9781	110
0	1481708	9781	209
0	1481732	9781	109
0	1481751	9781	208
0	1481775	9781	108
0	1481794	9781	207
0	1481818	9781	107
0	1481837	9781	206
0	1481861	9781	106
0	1481880	9781	205
0	1481904	9781	105
0	1481923	9781	104
0	1481947	9781	103
0	1481966	9781	102
0	1481990	9781	101
0	1482009	9781	100
0	1482033	9781	99
0	1482052	9781	98
0	1482076	9781	97
0	1482095	9781	96
0	1482119	9781	95
0	1482138	9781	94
0	1482162	9781	93
0	1482181	9781	92
0	1482205	9781	91
0	1482224	9781	90
0	1482248	9781	89
0	1482267	9781	88
0	1482291	9781	87
0	1482310	9781	86
0	1482334	9781	85
0	1482353	9781	84
0	1482377	9781	83
0	1482396	9781	82
0	1482420	9781	81
0	1482439	9781	80
0	1482463	9781	79
0	1482482	9781	78
0	1482506	9781	77
0	1482525	9781	76
0	1482549	9781	75
0	1482568	9781	74
0	1482592	9781	73
0	1482611	9781	72
0	1482635	9781	71
0	1482654	9781	70
0	1482678	9781	69
0	1482697	9781	68
0	1482721	9781	67
0	1482740	9781	66
0	1482764	9781	65
0	1482783	9781	64
0	1482807	9781	63
0	1482826	9781	62
0	1482850	9781	61
0	1482869	9781	60
0	1482893	9781	59
0	1482912	9781	58
0	1482936	9781	57
0	1482955	9781	56
0	1482979	9781	55
0	1482998	9781	54
0	1483022	9781	53
0	1483041	9781	52
0	1483065	9781	51
0	1483084	9781	50
0	1483108	9781	49
0	1483127	9781	48
0	1483151	9781	47
0	1483170	9781	46
0	1483194	9781	45
0	1483213	9781	44
0	1483237	9781	43
0	1483256	9781	42
0	1483280	9781	41
0	1483299	9781	40
0	1483323	9781	39
0	1483342	9781	38
0	1483366	9781	37
0	1483385	9781	36
0	1483409	9781	35
0	1483428	9781	34
0	1483452	9781	33
0	1483471	9781	32


