version 2
run General-0-20250117-14:01:11-198181
attr configname General
attr datetime 20250117-14:01:11
attr experiment General
attr inifile shaw_mine.ini
attr iterationvars ""
attr iterationvarsf ""
attr measurement ""
attr network src.dtnsim
attr processid 198181
attr repetition 0
attr replication #0
attr resultdir results
attr runnumber 0
attr seedset 0
param dtnsim.central.contactsFile "\"contactPlan/Contacts.txt\""
param dtnsim.central.contactsFile_A "\"contactPlan/Contacts.txt\""
param dtnsim.central.contactsFile_B "\"contactPlan/Contacts.txt\""
param dtnsim.central.contactIdsToDelete_from_celestialA "\"2 8 11 12 23 26 34 52 54 60 62 63 70 74 75 81 92 95 101 104 107 112 118 126 128 130 131 132 134 138 143 147 154 155 158 166 174 175 185 186 194 195 201 202 203 208 216 217 219 222 225 238 246 255 258 274 280 284 289 294 300 305 313 317 318 327 341 346 353 357 385 387 389 391 393 394 405 411 413 419 421 422 425 432 433 436 437 443 445 447 448 451 461 463 470 471 472 473\""
param dtnsim.central.contactIdsToDelete_from_celestialB "\"6 13 15 18 19 20 24 25 29 32 48 64 78 79 82 85 90 94 100 103 108 109 110 111 115 124 125 129 146 151 156 167 169 180 182 183 187 188 192 196 205 210 218 220 223 231 233 234 235 243 245 248 249 251 254 260 275 278 279 281 286 288 292 293 299 302 303 306 310 312 336 337 340 343 350 354 355 356 360 365 368 371 374 377 384 390 392 397 398 399 400 403 404 412 420 424 429 446 453 455 464 478\""
param dtnsim.central.celestialA_nodes "\"1 2 3\""
param dtnsim.central.celestialB_nodes "\"4 5 6\""
param dtnsim.central.locallyfaultsAware true
param dtnsim.central.mode_two_celestial true
param dtnsim.nodesNumber 6
param dtnsim.node[1].icon "\"receiverdish\""
param dtnsim.node[2..5].icon "\"satellite\""
param dtnsim.node[6].icon "\"receiverdish\""
param dtnsim.node[*].dtn.routing "\"cgrModel350\""
param dtnsim.node[*].dtn.routingType "\"routeListType:allPaths-firstEnding,volumeAware:allContacts,extensionBlock:on,contactPlan:global\""
param dtnsim.node[1].app.enable true
param dtnsim.node[1].app.bundlesNumber "\"8000\""
param dtnsim.node[1].app.start "\"0\""
param dtnsim.node[1].app.destinationEid "\"6\""
param dtnsim.node[1].app.size "\"1500\""
param dtnsim.node[1].app.interval 10

vector 0 dtnsim.node[6].app appBundleReceivedDelayvec:vector ETV
attr interpolationmode none
attr source appBundleReceivedDelay
attr title "appBundleReceivedDelayvec, vector"
0	21535	58718	58718
0	21541	58718	58708
0	21547	58718	58698
0	21553	58718	58688
0	21559	58718	58678
0	21565	58718	58668
0	21571	58718	58658
0	21577	58718	58648
0	21583	58718	58638
0	21589	58718	58628
0	21595	58718	58618
0	21601	58718	58608
0	21607	58718	58598
0	21613	58718	58588
0	21619	58718	58578
0	21625	58718	58568
0	21631	58718	58558
0	21637	58718	58548
0	21643	58718	58538
0	21649	58718	58528
0	21655	58718	58518
0	21661	58718	58508
0	21667	58718	58498
0	21673	58718	58488
0	21679	58718	58478
0	21685	58718	58468
0	21691	58718	58458
0	21697	58718	58448
0	21703	58718	58438
0	21709	58718	58428
0	21715	58718	58418
0	21721	58718	58408
0	21727	58718	58398
0	21733	58718	58388
0	21739	58718	58378
0	21745	58718	58368
0	21751	58718	58358
0	21757	58718	58348
0	21763	58718	58338
0	21769	58718	58328
0	21775	58718	58318
0	21781	58718	58308
0	21787	58718	58298
0	21793	58718	58288
0	21799	58718	58278
0	21805	58718	58268
0	21811	58718	58258
0	21817	58718	58248
0	21823	58718	58238
0	21829	58718	58228
0	21835	58718	58218
0	21841	58718	58208
0	21847	58718	58198
0	21853	58718	58188
0	21859	58718	58178
0	21865	58718	58168
0	21871	58718	58158
0	21877	58718	58148
0	21883	58718	58138
0	21889	58718	58128
0	21895	58718	58118
0	21901	58718	58108
0	21907	58718	58098
0	21913	58718	58088
0	21919	58718	58078
0	21925	58718	58068
0	21931	58718	58058
0	21937	58718	58048
0	21943	58718	58038
0	21949	58718	58028
0	21955	58718	58018
0	21961	58718	58008
0	21967	58718	57998
0	21973	58718	57988
0	21979	58718	57978
0	21985	58718	57968
0	21991	58718	57958
0	21997	58718	57948
0	22003	58718	57938
0	22009	58718	57928
0	22015	58718	57918
0	22021	58718	57908
0	22027	58718	57898
0	22033	58718	57888
0	22039	58718	57878
0	22045	58718	57868
0	22051	58718	57858
0	22057	58718	57848
0	22063	58718	57838
0	22069	58718	57828
0	22075	58718	57818
0	22081	58718	57808
0	22087	58718	57798
0	22093	58718	57788
0	22099	58718	57778
0	22105	58718	57768
0	22111	58718	57758
0	22117	58718	57748
0	22123	58718	57738
0	22129	58718	57728
0	22135	58718	57718
0	22141	58718	57708
0	22147	58718	57698
0	22153	58718	57688
0	22159	58718	57678
0	22165	58718	57668
0	22171	58718	57658
0	22177	58718	57648
0	22183	58718	57638
0	22189	58718	57628
0	22195	58718	57618
0	22201	58718	57608
0	22207	58718	57598
0	22213	58718	57588
0	22219	58718	57578
0	22225	58718	57568
0	22231	58718	57558
0	22237	58718	57548
0	22243	58718	57538
0	22249	58718	57528
0	22255	58718	57518
0	22261	58718	57508
0	22267	58718	57498
0	22273	58718	57488
0	22279	58718	57478
0	22285	58718	57468
0	22291	58718	57458
0	22297	58718	57448
0	22303	58718	57438
0	22309	58718	57428
0	22315	58718	57418
0	22321	58718	57408
0	22327	58718	57398
0	22333	58718	57388
0	22339	58718	57378
0	22345	58718	57368
0	22351	58718	57358
0	22357	58718	57348
0	22363	58718	57338
0	22369	58718	57328
0	22375	58718	57318
0	22381	58718	57308
0	22387	58718	57298
0	22393	58718	57288
0	22399	58718	57278
0	22405	58718	57268
0	22411	58718	57258
0	22417	58718	57248
0	22423	58718	57238
0	22429	58718	57228
0	22435	58718	57218
0	22441	58718	57208
0	22447	58718	57198
0	22453	58718	57188
0	22459	58718	57178
0	22465	58718	57168
0	22471	58718	57158
0	22477	58718	57148
0	22483	58718	57138
0	22489	58718	57128
0	22495	58718	57118
0	22501	58718	57108
0	22507	58718	57098
0	22513	58718	57088
0	22519	58718	57078
0	22525	58718	57068
0	22531	58718	57058
0	22537	58718	57048
0	22543	58718	57038
0	22549	58718	57028
0	22555	58718	57018
0	22561	58718	57008
0	22567	58718	56998
0	22573	58718	56988
0	22579	58718	56978
0	22585	58718	56968
0	22591	58718	56958
0	22597	58718	56948
0	22603	58718	56938
0	22609	58718	56928
0	22615	58718	56918
0	22621	58718	56908
0	22627	58718	56898
0	22633	58718	56888
0	22639	58718	56878
0	22645	58718	56868
0	22651	58718	56858
0	22657	58718	56848
0	22663	58718	56838
0	22669	58718	56828
0	22675	58718	56818
0	22681	58718	56808
0	22687	58718	56798
0	22693	58718	56788
0	22699	58718	56778
0	22705	58718	56768
0	22711	58718	56758
0	22717	58718	56748
0	22723	58718	56738
0	22729	58718	56728
0	22735	58718	56718
0	22741	58718	56708
0	22747	58718	56698
0	22753	58718	56688
0	22759	58718	56678
0	22765	58718	56668
0	22771	58718	56658
0	22777	58718	56648
0	22783	58718	56638
0	22789	58718	56628
0	22795	58718	56618
0	22801	58718	56608
0	22807	58718	56598
0	22813	58718	56588
0	22819	58718	56578
0	22825	58718	56568
0	22831	58718	56558
0	22837	58718	56548
0	22843	58718	56538
0	22849	58718	56528
0	22855	58718	56518
0	22861	58718	56508
0	22867	58718	56498
0	22873	58718	56488
0	22879	58718	56478
0	22885	58718	56468
0	22891	58718	56458
0	22897	58718	56448
0	22903	58718	56438
0	22909	58718	56428
0	22915	58718	56418
0	22921	58718	56408
0	22927	58718	56398
0	22933	58718	56388
0	22939	58718	56378
0	22945	58718	56368
0	22951	58718	56358
0	22957	58718	56348
0	22963	58718	56338
0	22969	58718	56328
0	22975	58718	56318
0	22981	58718	56308
0	22987	58718	56298
0	22993	58718	56288
0	22999	58718	56278
0	23005	58718	56268
0	23011	58718	56258
0	23017	58718	56248
0	23023	58718	56238
0	23029	58718	56228
0	23035	58718	56218
0	23041	58718	56208
0	23047	58718	56198
0	23053	58718	56188
0	23059	58718	56178
0	23065	58718	56168
0	23071	58718	56158
0	23077	58718	56148
0	23083	58718	56138
0	23089	58718	56128
0	23095	58718	56118
0	23101	58718	56108
0	23107	58718	56098
0	23113	58718	56088
0	23119	58718	56078
0	23125	58718	56068
0	23131	58718	56058
0	23137	58718	56048
0	23143	58718	56038
0	23149	58718	56028
0	23155	58718	56018
0	23161	58718	56008
0	23167	58718	55998
0	23173	58718	55988
0	23179	58718	55978
0	23185	58718	55968
0	23191	58718	55958
0	23197	58718	55948
0	23203	58718	55938
0	23209	58718	55928
0	23215	58718	55918
0	23221	58718	55908
0	23227	58718	55898
0	23233	58718	55888
0	23239	58718	55878
0	23245	58718	55868
0	23251	58718	55858
0	23257	58718	55848
0	23263	58718	55838
0	23269	58718	55828
0	23275	58718	55818
0	23281	58718	55808
0	23287	58718	55798
0	23293	58718	55788
0	23299	58718	55778
0	23305	58718	55768
0	23311	58718	55758
0	23317	58718	55748
0	23323	58718	55738
0	23329	58718	55728
0	23335	58718	55718
0	23341	58718	55708
0	23347	58718	55698
0	23353	58718	55688
0	23359	58718	55678
0	23365	58718	55668
0	23371	58718	55658
0	23377	58718	55648
0	23383	58718	55638
0	23389	58718	55628
0	23395	58718	55618
0	23401	58718	55608
0	23407	58718	55598
0	23413	58718	55588
0	23419	58718	55578
0	23425	58718	55568
0	23431	58718	55558
0	23437	58718	55548
0	23443	58718	55538
0	23449	58718	55528
0	23455	58718	55518
0	23461	58718	55508
0	23467	58718	55498
0	23473	58718	55488
0	23479	58718	55478
0	23485	58718	55468
0	23491	58718	55458
0	23497	58718	55448
0	23503	58718	55438
0	23509	58718	55428
0	23515	58718	55418
0	23521	58718	55408
0	23527	58718	55398
0	23533	58718	55388
0	23539	58718	55378
0	23545	58718	55368
0	23551	58718	55358
0	23557	58718	55348
0	23563	58718	55338
0	23569	58718	55328
0	23575	58718	55318
0	23581	58718	55308
0	23587	58718	55298
0	23593	58718	55288
0	23599	58718	55278
0	23605	58718	55268
0	23611	58718	55258
0	23617	58718	55248
0	23623	58718	55238
0	23629	58718	55228
0	23635	58718	55218
0	23641	58718	55208
0	23647	58718	55198
0	23653	58718	55188
0	23659	58718	55178
0	23665	58718	55168
0	23671	58718	55158
0	23677	58718	55148
0	23683	58718	55138
0	23689	58718	55128
0	23695	58718	55118
0	23701	58718	55108
0	23707	58718	55098
0	23713	58718	55088
0	23719	58718	55078
0	23725	58718	55068
0	23731	58718	55058
0	23737	58718	55048
0	23743	58718	55038
0	23749	58718	55028
0	23755	58718	55018
0	23761	58718	55008
0	23767	58718	54998
0	23773	58718	54988
0	23779	58718	54978
0	23785	58718	54968
0	23791	58718	54958
0	23797	58718	54948
0	23803	58718	54938
0	23809	58718	54928
0	23815	58718	54918
0	23821	58718	54908
0	23827	58718	54898
0	23833	58718	54888
0	23839	58718	54878
0	23845	58718	54868
0	23851	58718	54858
0	23857	58718	54848
0	23863	58718	54838
0	23869	58718	54828
0	23875	58718	54818
0	23881	58718	54808
0	23887	58718	54798
0	23893	58718	54788
0	23899	58718	54778
0	23905	58718	54768
0	23911	58718	54758
0	23917	58718	54748
0	23923	58718	54738
0	23929	58718	54728
0	23935	58718	54718
0	23941	58718	54708
0	23947	58718	54698
0	23953	58718	54688
0	23959	58718	54678
0	23965	58718	54668
0	23971	58718	54658
0	23977	58718	54648
0	23983	58718	54638
0	23989	58718	54628
0	23995	58718	54618
0	24001	58718	54608
0	24007	58718	54598
0	24013	58718	54588
0	24019	58718	54578
0	24025	58718	54568
0	24031	58718	54558
0	24037	58718	54548
0	24043	58718	54538
0	24049	58718	54528
0	24055	58718	54518
0	24061	58718	54508
0	24067	58718	54498
0	24073	58718	54488
0	24079	58718	54478
0	24085	58718	54468
0	24091	58718	54458
0	24097	58718	54448
0	24103	58718	54438
0	24109	58718	54428
0	24115	58718	54418
0	24121	58718	54408
0	24127	58718	54398
0	24133	58718	54388
0	24139	58718	54378
0	24145	58718	54368
0	24151	58718	54358
0	24157	58718	54348
0	24163	58718	54338
0	24169	58718	54328
0	24175	58718	54318
0	24181	58718	54308
0	24187	58718	54298
0	24193	58718	54288
0	24199	58718	54278
0	24205	58718	54268
0	24211	58718	54258
0	24217	58718	54248
0	24223	58718	54238
0	24229	58718	54228
0	24235	58718	54218
0	24241	58718	54208
0	24247	58718	54198
0	24253	58718	54188
0	24259	58718	54178
0	24265	58718	54168
0	24271	58718	54158
0	24277	58718	54148
0	24283	58718	54138
0	24289	58718	54128
0	24295	58718	54118
0	24301	58718	54108
0	24307	58718	54098
0	24313	58718	54088
0	24319	58718	54078
0	24325	58718	54068
0	24331	58718	54058
0	24337	58718	54048
0	24343	58718	54038
0	24349	58718	54028
0	24355	58718	54018
0	24361	58718	54008
0	24367	58718	53998
0	24373	58718	53988
0	24379	58718	53978
0	24385	58718	53968
0	24391	58718	53958
0	24397	58718	53948
0	24403	58718	53938
0	24409	58718	53928
0	24415	58718	53918
0	24421	58718	53908
0	24427	58718	53898
0	24433	58718	53888
0	24439	58718	53878
0	24445	58718	53868
0	24451	58718	53858
0	24457	58718	53848
0	24463	58718	53838
0	24469	58718	53828
0	24475	58718	53818
0	24481	58718	53808
0	24487	58718	53798
0	24493	58718	53788
0	24499	58718	53778
0	24505	58718	53768
0	24511	58718	53758
0	24517	58718	53748
0	24523	58718	53738
0	24529	58718	53728
0	24535	58718	53718
0	24541	58718	53708
0	24547	58718	53698
0	24553	58718	53688
0	24559	58718	53678
0	24565	58718	53668
0	24571	58718	53658
0	24577	58718	53648
0	24583	58718	53638
0	24589	58718	53628
0	24595	58718	53618
0	24601	58718	53608
0	24607	58718	53598
0	24613	58718	53588
0	24619	58718	53578
0	24625	58718	53568
0	24631	58718	53558
0	24637	58718	53548
0	24643	58718	53538
0	24649	58718	53528
0	24655	58718	53518
0	24661	58718	53508
0	24667	58718	53498
0	24673	58718	53488
0	24679	58718	53478
0	24685	58718	53468
0	24691	58718	53458
0	24697	58718	53448
0	24703	58718	53438
0	24709	58718	53428
0	24715	58718	53418
0	24721	58718	53408
0	24727	58718	53398
0	24733	58718	53388
0	24739	58718	53378
0	24745	58718	53368
0	24751	58718	53358
0	24757	58718	53348
0	24763	58718	53338
0	24769	58718	53328
0	24775	58718	53318
0	24781	58718	53308
0	24787	58718	53298
0	24793	58718	53288
0	24799	58718	53278
0	24805	58718	53268
0	24811	58718	53258
0	24817	58718	53248
0	24823	58718	53238
0	24829	58718	53228
0	24835	58718	53218
0	24841	58718	53208
0	24847	58718	53198
0	24853	58718	53188
0	24859	58718	53178
0	24865	58718	53168
0	24871	58718	53158
0	24877	58718	53148
0	24883	58718	53138
0	24889	58718	53128
0	24895	58718	53118
0	24901	58718	53108
0	24907	58718	53098
0	24913	58718	53088
0	24919	58718	53078
0	24925	58718	53068
0	24931	58718	53058
0	24937	58718	53048
0	24943	58718	53038
0	24949	58718	53028
0	24955	58718	53018
0	24961	58718	53008
0	24967	58718	52998
0	24973	58718	52988
0	24979	58718	52978
0	24985	58718	52968
0	24991	58718	52958
0	24997	58718	52948
0	25003	58718	52938
0	25009	58718	52928
0	25015	58718	52918
0	25021	58718	52908
0	25027	58718	52898
0	25033	58718	52888
0	25039	58718	52878
0	25045	58718	52868
0	25051	58718	52858
0	25057	58718	52848
0	25063	58718	52838
0	25069	58718	52828
0	25075	58718	52818
0	25081	58718	52808
0	25087	58718	52798
0	25093	58718	52788
0	25099	58718	52778
0	25105	58718	52768
0	25111	58718	52758
0	25117	58718	52748
0	25123	58718	52738
0	25129	58718	52728
0	25135	58718	52718
0	25141	58718	52708
0	25147	58718	52698
0	25153	58718	52688
0	25159	58718	52678
0	25165	58718	52668
0	25171	58718	52658
0	25177	58718	52648
0	25183	58718	52638
0	25189	58718	52628
0	25195	58718	52618
0	25201	58718	52608
0	25207	58718	52598
0	25213	58718	52588
0	25219	58718	52578
0	25225	58718	52568
0	25231	58718	52558
0	25237	58718	52548
0	25243	58718	52538
0	25249	58718	52528
0	25255	58718	52518
0	25261	58718	52508
0	25267	58718	52498
0	25273	58718	52488
0	25279	58718	52478
0	25285	58718	52468
0	25291	58718	52458
0	25297	58718	52448
0	25303	58718	52438
0	25309	58718	52428
0	25315	58718	52418
0	25321	58718	52408
0	25327	58718	52398
0	25333	58718	52388
0	25339	58718	52378
0	25345	58718	52368
0	25351	58718	52358
0	25357	58718	52348
0	25363	58718	52338
0	25369	58718	52328
0	25375	58718	52318
0	25381	58718	52308
0	25387	58718	52298
0	25393	58718	52288
0	25399	58718	52278
0	25405	58718	52268
0	25411	58718	52258
0	25417	58718	52248
0	25423	58718	52238
0	25429	58718	52228
0	25435	58718	52218
0	25441	58718	52208
0	25447	58718	52198
0	25453	58718	52188
0	25459	58718	52178
0	25465	58718	52168
0	25471	58718	52158
0	25477	58718	52148
0	25483	58718	52138
0	25489	58718	52128
0	25495	58718	52118
0	25501	58718	52108
0	25507	58718	52098
0	25513	58718	52088
0	25519	58718	52078
0	25525	58718	52068
0	25531	58718	52058
0	25537	58718	52048
0	25543	58718	52038
0	25549	58718	52028
0	25555	58718	52018
0	25561	58718	52008
0	25567	58718	51998
0	25573	58718	51988
0	25579	58718	51978
0	25585	58718	51968
0	25591	58718	51958
0	25597	58718	51948
0	25603	58718	51938
0	25609	58718	51928
0	25615	58718	51918
0	25621	58718	51908
0	25627	58718	51898
0	25633	58718	51888
0	25639	58718	51878
0	25645	58718	51868
0	25651	58718	51858
0	25657	58718	51848
0	25663	58718	51838
0	25669	58718	51828
0	25675	58718	51818
0	25681	58718	51808
0	25687	58718	51798
0	25693	58718	51788
0	25699	58718	51778
0	25705	58718	51768
0	25711	58718	51758
0	25717	58718	51748
0	25723	58718	51738
0	25729	58718	51728
0	25735	58718	51718
0	25741	58718	51708
0	25747	58718	51698
0	25753	58718	51688
0	25759	58718	51678
0	25765	58718	51668
0	25771	58718	51658
0	25777	58718	51648
0	25783	58718	51638
0	25789	58718	51628
0	25795	58718	51618
0	25801	58718	51608
0	25807	58718	51598
0	25813	58718	51588
0	25819	58718	51578
0	25825	58718	51568
0	25831	58718	51558
0	25837	58718	51548
0	25843	58718	51538
0	25849	58718	51528
0	25855	58718	51518
0	25861	58718	51508
0	25867	58718	51498
0	25873	58718	51488
0	25879	58718	51478
0	25885	58718	51468
0	25891	58718	51458
0	25897	58718	51448
0	25903	58718	51438
0	25909	58718	51428
0	25915	58718	51418
0	25921	58718	51408
0	25927	58718	51398
0	25933	58718	51388
0	25939	58718	51378
0	25945	58718	51368
0	25951	58718	51358
0	25957	58718	51348
0	25963	58718	51338
0	25969	58718	51328
0	25975	58718	51318
0	25981	58718	51308
0	25987	58718	51298
0	25993	58718	51288
0	25999	58718	51278
0	26005	58718	51268
0	26011	58718	51258
0	26017	58718	51248
0	26023	58718	51238
0	26029	58718	51228
0	26035	58718	51218
0	26041	58718	51208
0	26047	58718	51198
0	26053	58718	51188
0	26059	58718	51178
0	26065	58718	51168
0	26071	58718	51158
0	26077	58718	51148
0	26083	58718	51138
0	26089	58718	51128
0	26095	58718	51118
0	26101	58718	51108
0	26107	58718	51098
0	26113	58718	51088
0	26119	58718	51078
0	26125	58718	51068
0	26131	58718	51058
0	26137	58718	51048
0	26143	58718	51038
0	26149	58718	51028
0	26155	58718	51018
0	26161	58718	51008
0	26167	58718	50998
0	26173	58718	50988
0	26179	58718	50978
0	26185	58718	50968
0	26191	58718	50958
0	26197	58718	50948
0	26203	58718	50938
0	26209	58718	50928
0	26215	58718	50918
0	26221	58718	50908
0	26227	58718	50898
0	26233	58718	50888
0	26239	58718	50878
0	26245	58718	50868
0	26251	58718	50858
0	26257	58718	50848
0	26263	58718	50838
0	26269	58718	50828
0	26275	58718	50818
0	26281	58718	50808
0	26287	58718	50798
0	26293	58718	50788
0	26299	58718	50778
0	26305	58718	50768
0	26311	58718	50758
0	26317	58718	50748
0	26323	58718	50738
0	26329	58718	50728
0	26335	58718	50718
0	26341	58718	50708
0	26347	58718	50698
0	26353	58718	50688
0	26359	58718	50678
0	26365	58718	50668
0	26371	58718	50658
0	26377	58718	50648
0	26383	58718	50638
0	26389	58718	50628
0	26395	58718	50618
0	26401	58718	50608
0	26407	58718	50598
0	26413	58718	50588
0	26419	58718	50578
0	26425	58718	50568
0	26431	58718	50558
0	26437	58718	50548
0	26443	58718	50538
0	26449	58718	50528
0	26455	58718	50518
0	26461	58718	50508
0	26467	58718	50498
0	26473	58718	50488
0	26479	58718	50478
0	26485	58718	50468
0	26491	58718	50458
0	26497	58718	50448
0	26503	58718	50438
0	26509	58718	50428
0	26515	58718	50418
0	26521	58718	50408
0	26527	58718	50398
0	26533	58718	50388
0	26539	58718	50378
0	26545	58718	50368
0	26551	58718	50358
0	26557	58718	50348
0	26563	58718	50338
0	26569	58718	50328
0	26575	58718	50318
0	26581	58718	50308
0	26587	58718	50298
0	26593	58718	50288
0	26599	58718	50278
0	26605	58718	50268
0	26611	58718	50258
0	26617	58718	50248
0	26623	58718	50238
0	26629	58718	50228
0	26635	58718	50218
0	26641	58718	50208
0	26647	58718	50198
0	26653	58718	50188
0	26659	58718	50178
0	26665	58718	50168
0	26671	58718	50158
0	26677	58718	50148
0	26683	58718	50138
0	26689	58718	50128
0	26695	58718	50118
0	26701	58718	50108
0	26707	58718	50098
0	26713	58718	50088
0	26719	58718	50078
0	26725	58718	50068
0	26731	58718	50058
0	26737	58718	50048
0	26743	58718	50038
0	26749	58718	50028
0	26755	58718	50018
0	26761	58718	50008
0	26767	58718	49998
0	26773	58718	49988
0	26779	58718	49978
0	26785	58718	49968
0	26791	58718	49958
0	26797	58718	49948
0	26803	58718	49938
0	26809	58718	49928
0	26815	58718	49918
0	26821	58718	49908
0	26827	58718	49898
0	26833	58718	49888
0	26839	58718	49878
0	26845	58718	49868
0	26851	58718	49858
0	26857	58718	49848
0	26863	58718	49838
0	26869	58718	49828
0	26875	58718	49818
0	26881	58718	49808
0	26887	58718	49798
0	26893	58718	49788
0	26899	58718	49778
0	26905	58718	49768
0	26911	58718	49758
0	26917	58718	49748
0	26923	58718	49738
0	26929	58718	49728
0	26935	58718	49718
0	26941	58718	49708
0	26947	58718	49698
0	26953	58718	49688
0	26959	58718	49678
0	26965	58718	49668
0	26971	58718	49658
0	26977	58718	49648
0	26983	58718	49638
0	26989	58718	49628
0	26995	58718	49618
0	27001	58718	49608
0	27007	58718	49598
0	27013	58718	49588
0	27019	58718	49578
0	27025	58718	49568
0	27031	58718	49558
0	27037	58718	49548
0	27043	58718	49538
0	27049	58718	49528
0	27055	58718	49518
0	27061	58718	49508
0	27067	58718	49498
0	27073	58718	49488
0	27079	58718	49478
0	27085	58718	49468
0	27091	58718	49458
0	27097	58718	49448
0	27103	58718	49438
0	27109	58718	49428
0	27115	58718	49418
0	27121	58718	49408
0	98170	71098	61778
0	98182	71098	61768
0	98194	71098	61758
0	98205	71098	61748
0	98217	71098	61738
0	98228	71098	61728
0	98240	71098	61718
0	98251	71098	61708
0	98263	71098	61698
0	98274	71098	61688
0	98286	71098	61678
0	98297	71098	61668
0	98309	71098	61658
0	98320	71098	61648
0	98332	71098	61638
0	98343	71098	61628
0	98355	71098	61618
0	98366	71098	61608
0	98378	71098	61598
0	98389	71098	61588
0	98401	71098	61578
0	98412	71098	61568
0	98424	71098	61558
0	98435	71098	61548
0	98447	71098	61538
0	98458	71098	61528
0	98470	71098	61518
0	98481	71098	61508
0	98493	71098	61498
0	98504	71098	61488
0	98516	71098	61478
0	98527	71098	61468
0	98539	71098	61458
0	98550	71098	61448
0	98562	71098	61438
0	98573	71098	61428
0	98585	71098	61418
0	98596	71098	61408
0	98608	71098	61398
0	98619	71098	61388
0	98631	71098	61378
0	98642	71098	61368
0	98654	71098	61358
0	98665	71098	61348
0	98677	71098	61338
0	98688	71098	61328
0	98700	71098	61318
0	98711	71098	61308
0	98723	71098	61298
0	98734	71098	61288
0	98746	71098	61278
0	98757	71098	61268
0	98769	71098	61258
0	98780	71098	61248
0	98792	71098	61238
0	98803	71098	61228
0	98815	71098	61218
0	98826	71098	61208
0	98838	71098	61198
0	98849	71098	61188
0	98861	71098	61178
0	98872	71098	61168
0	98884	71098	61158
0	98895	71098	61148
0	98907	71098	61138
0	98918	71098	61128
0	98930	71098	61118
0	98941	71098	61108
0	98953	71098	61098
0	98964	71098	61088
0	98976	71098	61078
0	98987	71098	61068
0	98999	71098	61058
0	99010	71098	61048
0	99022	71098	61038
0	99033	71098	61028
0	99045	71098	61018
0	99056	71098	61008
0	99068	71098	60998
0	99079	71098	60988
0	99091	71098	60978
0	99102	71098	60968
0	99114	71098	60958
0	99125	71098	60948
0	99137	71098	60938
0	99148	71098	60928
0	99160	71098	60918
0	99171	71098	60908
0	99183	71098	60898
0	99194	71098	60888
0	99206	71098	60878
0	99217	71098	60868
0	99229	71098	60858
0	99240	71098	60848
0	99252	71098	60838
0	99263	71098	60828
0	99275	71098	60818
0	99286	71098	60808
0	99298	71098	60798
0	99309	71098	60788
0	99321	71098	60778
0	99332	71098	60768
0	99344	71098	60758
0	99355	71098	60748
0	99367	71098	60738
0	99378	71098	60728
0	99390	71098	60718
0	99401	71098	60708
0	99413	71098	60698
0	99424	71098	60688
0	99436	71098	60678
0	99447	71098	60668
0	99459	71098	60658
0	99470	71098	60648
0	99482	71098	60638
0	99493	71098	60628
0	99505	71098	60618
0	99516	71098	60608
0	99528	71098	60598
0	99539	71098	60588
0	99551	71098	60578
0	99562	71098	60568
0	99574	71098	60558
0	99585	71098	60548
0	99597	71098	60538
0	99608	71098	60528
0	99620	71098	60518
0	99631	71098	60508
0	99643	71098	60498
0	99654	71098	60488
0	99666	71098	60478
0	99677	71098	60468
0	99689	71098	60458
0	99700	71098	60448
0	99712	71098	60438
0	99723	71098	60428
0	99735	71098	60418
0	99746	71098	60408
0	99758	71098	60398
0	99769	71098	60388
0	99781	71098	60378
0	99792	71098	60368
0	99804	71098	60358
0	99815	71098	60348
0	99827	71098	60338
0	99838	71098	60328
0	99850	71098	60318
0	99861	71098	60308
0	99873	71098	60298
0	99884	71098	60288
0	99896	71098	60278
0	99907	71098	60268
0	99919	71098	60258
0	99930	71098	60248
0	99942	71098	60238
0	99953	71098	60228
0	99965	71098	60218
0	99976	71098	60208
0	99988	71098	60198
0	99999	71098	60188
0	100011	71098	60178
0	100022	71098	60168
0	100034	71098	60158
0	100045	71098	60148
0	100057	71098	60138
0	100068	71098	60128
0	100080	71098	60118
0	100091	71098	60108
0	100103	71098	60098
0	100114	71098	60088
0	100126	71098	60078
0	100137	71098	60068
0	100149	71098	60058
0	100160	71098	60048
0	100172	71098	60038
0	100183	71098	60028
0	100195	71098	60018
0	100206	71098	60008
0	100218	71098	59998
0	100229	71098	59988
0	100241	71098	59978
0	100252	71098	59968
0	100264	71098	59958
0	100275	71098	59948
0	100287	71098	59938
0	100298	71098	59928
0	100310	71098	59918
0	100321	71098	59908
0	100333	71098	59898
0	100344	71098	59888
0	100356	71098	59878
0	100367	71098	59868
0	100379	71098	59858
0	100390	71098	59848
0	100402	71098	59838
0	100413	71098	59828
0	100425	71098	59818
0	100436	71098	59808
0	100448	71098	59798
0	100459	71098	59788
0	100471	71098	59778
0	100482	71098	59768
0	100494	71098	59758
0	100505	71098	59748
0	100517	71098	59738
0	100528	71098	59728
0	100540	71098	59718
0	100551	71098	59708
0	100563	71098	59698
0	100574	71098	59688
0	100586	71098	59678
0	100597	71098	59668
0	100609	71098	59658
0	100620	71098	59648
0	100632	71098	59638
0	100643	71098	59628
0	100655	71098	59618
0	100666	71098	59608
0	100678	71098	59598
0	100689	71098	59588
0	100701	71098	59578
0	100712	71098	59568
0	100724	71098	59558
0	100735	71098	59548
0	100747	71098	59538
0	100758	71098	59528
0	100770	71098	59518
0	100781	71098	59508
0	100793	71098	59498
0	100804	71098	59488
0	100816	71098	59478
0	100827	71098	59468
0	100839	71098	59458
0	100850	71098	59448
0	100862	71098	59438
0	100873	71098	59428
0	100885	71098	59418
0	100896	71098	59408
0	100908	71098	59398
0	100919	71098	59388
0	100931	71098	59378
0	100942	71098	59368
0	100954	71098	59358
0	100965	71098	59348
0	100977	71098	59338
0	100988	71098	59328
0	101000	71098	59318
0	101011	71098	59308
0	101023	71098	59298
0	101034	71098	59288
0	101046	71098	59278
0	101057	71098	59268
0	101069	71098	59258
0	101080	71098	59248
0	101092	71098	59238
0	101103	71098	59228
0	101115	71098	59218
0	101126	71098	59208
0	101138	71098	59198
0	101149	71098	59188
0	101161	71098	59178
0	101172	71098	59168
0	101184	71098	59158
0	101195	71098	59148
0	101207	71098	59138
0	101218	71098	59128
0	101230	71098	59118
0	101241	71098	59108
0	101253	71098	59098
0	101264	71098	59088
0	101276	71098	59078
0	101287	71098	59068
0	101299	71098	59058
0	101310	71098	59048
0	101322	71098	59038
0	101333	71098	59028
0	101345	71098	59018
0	101356	71098	59008
0	101368	71098	58998
0	101379	71098	58988
0	101391	71098	58978
0	101402	71098	58968
0	101414	71098	58958
0	101425	71098	58948
0	101437	71098	58938
0	101448	71098	58928
0	101460	71098	58918
0	101471	71098	58908
0	101483	71098	58898
0	101494	71098	58888
0	101506	71098	58878
0	101517	71098	58868
0	101529	71098	58858
0	101540	71098	58848
0	101552	71098	58838
0	101563	71098	58828
0	101575	71098	58818
0	101586	71098	58808
0	101598	71098	58798
0	101609	71098	58788
0	101621	71098	58778
0	101632	71098	58768
0	101644	71098	58758
0	101655	71098	58748
0	101667	71098	58738
0	101678	71098	58728
0	101690	71098	58718
0	101701	71098	58708
0	101713	71098	58698
0	101724	71098	58688
0	101736	71098	58678
0	101747	71098	58668
0	101759	71098	58658
0	101770	71098	58648
0	101782	71098	58638
0	101793	71098	58628
0	101805	71098	58618
0	101816	71098	58608
0	101828	71098	58598
0	101839	71098	58588
0	101851	71098	58578
0	101862	71098	58568
0	101874	71098	58558
0	101885	71098	58548
0	101897	71098	58538
0	101908	71098	58528
0	101920	71098	58518
0	101931	71098	58508
0	101943	71098	58498
0	101954	71098	58488
0	101966	71098	58478
0	101977	71098	58468
0	101989	71098	58458
0	102000	71098	58448
0	102012	71098	58438
0	102023	71098	58428
0	102035	71098	58418
0	102046	71098	58408
0	102058	71098	58398
0	102069	71098	58388
0	102081	71098	58378
0	102092	71098	58368
0	102104	71098	58358
0	102115	71098	58348
0	102127	71098	58338
0	102138	71098	58328
0	102150	71098	58318
0	102161	71098	58308
0	102173	71098	58298
0	102184	71098	58288
0	102196	71098	58278
0	102207	71098	58268
0	102219	71098	58258
0	102230	71098	58248
0	102242	71098	58238
0	102253	71098	58228
0	102265	71098	58218
0	102276	71098	58208
0	102288	71098	58198
0	102299	71098	58188
0	102311	71098	58178
0	102322	71098	58168
0	102334	71098	58158
0	102345	71098	58148
0	102357	71098	58138
0	102368	71098	58128
0	102380	71098	58118
0	102391	71098	58108
0	102403	71098	58098
0	102414	71098	58088
0	102426	71098	58078
0	102437	71098	58068
0	102449	71098	58058
0	102460	71098	58048
0	102472	71098	58038
0	102483	71098	58028
0	102495	71098	58018
0	102506	71098	58008
0	102518	71098	57998
0	102529	71098	57988
0	102541	71098	57978
0	102552	71098	57968
0	102564	71098	57958
0	102575	71098	57948
0	102587	71098	57938
0	102598	71098	57928
0	102610	71098	57918
0	102621	71098	57908
0	102633	71098	57898
0	102644	71098	57888
0	102656	71098	57878
0	102667	71098	57868
0	102679	71098	57858
0	102690	71098	57848
0	102702	71098	57838
0	102713	71098	57828
0	102725	71098	57818
0	102736	71098	57808
0	102748	71098	57798
0	102759	71098	57788
0	102771	71098	57778
0	102782	71098	57768
0	102794	71098	57758
0	102805	71098	57748
0	102817	71098	57738
0	102828	71098	57728
0	102840	71098	57718
0	102851	71098	57708
0	102863	71098	57698
0	102874	71098	57688
0	102886	71098	57678
0	102897	71098	57668
0	102909	71098	57658
0	102920	71098	57648
0	102932	71098	57638
0	102943	71098	57628
0	102955	71098	57618
0	102966	71098	57608
0	102978	71098	57598
0	102989	71098	57588
0	103001	71098	57578
0	103012	71098	57568
0	103024	71098	57558
0	103035	71098	57548
0	103047	71098	57538
0	103058	71098	57528
0	103070	71098	57518
0	103081	71098	57508
0	103093	71098	57498
0	103104	71098	57488
0	103116	71098	57478
0	103127	71098	57468
0	103139	71098	57458
0	103150	71098	57448
0	103162	71098	57438
0	103173	71098	57428
0	103185	71098	57418
0	103196	71098	57408
0	103208	71098	57398
0	103219	71098	57388
0	103231	71098	57378
0	103242	71098	57368
0	103254	71098	57358
0	103265	71098	57348
0	103277	71098	57338
0	103288	71098	57328
0	103300	71098	57318
0	103311	71098	57308
0	103323	71098	57298
0	103334	71098	57288
0	103346	71098	57278
0	103357	71098	57268
0	103369	71098	57258
0	103380	71098	57248
0	103392	71098	57238
0	103403	71098	57228
0	103415	71098	57218
0	103426	71098	57208
0	103438	71098	57198
0	103449	71098	57188
0	103461	71098	57178
0	103472	71098	57168
0	103484	71098	57158
0	103495	71098	57148
0	103507	71098	57138
0	103518	71098	57128
0	103530	71098	57118
0	103541	71098	57108
0	103553	71098	57098
0	103564	71098	57088
0	103576	71098	57078
0	103587	71098	57068
0	103599	71098	57058
0	103610	71098	57048
0	103622	71098	57038
0	103633	71098	57028
0	103645	71098	57018
0	103656	71098	57008
0	103668	71098	56998
0	103679	71098	56988
0	103691	71098	56978
0	103702	71098	56968
0	103714	71098	56958
0	103725	71098	56948
0	103737	71098	56938
0	103748	71098	56928
0	103760	71098	56918
0	103771	71098	56908
0	103783	71098	56898
0	103794	71098	56888
0	103806	71098	56878
0	103817	71098	56868
0	103829	71098	56858
0	103840	71098	56848
0	103852	71098	56838
0	103863	71098	56828
0	103875	71098	56818
0	103886	71098	56808
0	103898	71098	56798
0	103909	71098	56788
0	103921	71098	56778
0	103932	71098	56768
0	103944	71098	56758
0	103955	71098	56748
0	103967	71098	56738
0	103978	71098	56728
0	103990	71098	56718
0	104001	71098	56708
0	104013	71098	56698
0	104024	71098	56688
0	104036	71098	56678
0	104047	71098	56668
0	104059	71098	56658
0	104070	71098	56648
0	104082	71098	56638
0	104093	71098	56628
0	104105	71098	56618
0	104116	71098	56608
0	104128	71098	56598
0	104139	71098	56588
0	104151	71098	56578
0	104162	71098	56568
0	104174	71098	56558
0	104185	71098	56548
0	104197	71098	56538
0	104208	71098	56528
0	104220	71098	56518
0	104231	71098	56508
0	104243	71098	56498
0	104254	71098	56488
0	104266	71098	56478
0	104277	71098	56468
0	104289	71098	56458
0	104300	71098	56448
0	104312	71098	56438
0	104323	71098	56428
0	104335	71098	56418
0	104346	71098	56408
0	104358	71098	56398
0	104369	71098	56388
0	104381	71098	56378
0	104392	71098	56368
0	104404	71098	56358
0	104415	71098	56348
0	104427	71098	56338
0	104438	71098	56328
0	104450	71098	56318
0	104461	71098	56308
0	104473	71098	56298
0	104484	71098	56288
0	104496	71098	56278
0	104507	71098	56268
0	104519	71098	56258
0	104530	71098	56248
0	104542	71098	56238
0	104553	71098	56228
0	104565	71098	56218
0	104576	71098	56208
0	104588	71098	56198
0	104599	71098	56188
0	104611	71098	56178
0	104622	71098	56168
0	104634	71098	56158
0	104645	71098	56148
0	104657	71098	56138
0	104668	71098	56128
0	104680	71098	56118
0	104691	71098	56108
0	104703	71098	56098
0	104714	71098	56088
0	104726	71098	56078
0	104737	71098	56068
0	104749	71098	56058
0	104760	71098	56048
0	104772	71098	56038
0	104783	71098	56028
0	104795	71098	56018
0	104806	71098	56008
0	104818	71098	55998
0	104829	71098	55988
0	104841	71098	55978
0	104852	71098	55968
0	104864	71098	55958
0	104875	71098	55948
0	104887	71098	55938
0	104898	71098	55928
0	104910	71098	55918
0	104921	71098	55908
0	104933	71098	55898
0	104944	71098	55888
0	104956	71098	55878
0	104967	71098	55868
0	104979	71098	55858
0	104990	71098	55848
0	105002	71098	55838
0	105013	71098	55828
0	105025	71098	55818
0	105036	71098	55808
0	105048	71098	55798
0	105059	71098	55788
0	105071	71098	55778
0	105082	71098	55768
0	105094	71098	55758
0	105105	71098	55748
0	105117	71098	55738
0	105128	71098	55728
0	105140	71098	55718
0	105151	71098	55708
0	105163	71098	55698
0	105174	71098	55688
0	105186	71098	55678
0	105197	71098	55668
0	105209	71098	55658
0	105220	71098	55648
0	105232	71098	55638
0	105243	71098	55628
0	105255	71098	55618
0	105266	71098	55608
0	105278	71098	55598
0	105289	71098	55588
0	105301	71098	55578
0	105312	71098	55568
0	105324	71098	55558
0	105335	71098	55548
0	105347	71098	55538
0	105358	71098	55528
0	105370	71098	55518
0	105381	71098	55508
0	105393	71098	55498
0	105404	71098	55488
0	105416	71098	55478
0	105427	71098	55468
0	105439	71098	55458
0	105450	71098	55448
0	105462	71098	55438
0	105473	71098	55428
0	105485	71098	55418
0	105496	71098	55408
0	105508	71098	55398
0	105519	71098	55388
0	105531	71098	55378
0	105542	71098	55368
0	105554	71098	55358
0	105565	71098	55348
0	105577	71098	55338
0	105588	71098	55328
0	105600	71098	55318
0	105611	71098	55308
0	105623	71098	55298
0	105634	71098	55288
0	105646	71098	55278
0	105657	71098	55268
0	105669	71098	55258
0	105680	71098	55248
0	105692	71098	55238
0	105703	71098	55228
0	105715	71098	55218
0	105726	71098	55208
0	105738	71098	55198
0	105749	71098	55188
0	105761	71098	55178
0	105772	71098	55168
0	105784	71098	55158
0	105795	71098	55148
0	105807	71098	55138
0	105818	71098	55128
0	105830	71098	55118
0	105841	71098	55108
0	105853	71098	55098
0	105864	71098	55088
0	105876	71098	55078
0	105887	71098	55068
0	105899	71098	55058
0	105910	71098	55048
0	105922	71098	55038
0	105933	71098	55028
0	105945	71098	55018
0	105956	71098	55008
0	105968	71098	54998
0	105979	71098	54988
0	105991	71098	54978
0	106002	71098	54968
0	106014	71098	54958
0	106025	71098	54948
0	106037	71098	54938
0	106048	71098	54928
0	106060	71098	54918
0	106071	71098	54908
0	106083	71098	54898
0	106094	71098	54888
0	106106	71098	54878
0	106117	71098	54868
0	106129	71098	54858
0	106140	71098	54848
0	106152	71098	54838
0	106163	71098	54828
0	106175	71098	54818
0	106186	71098	54808
0	106198	71098	54798
0	106209	71098	54788
0	106221	71098	54778
0	106232	71098	54768
0	106244	71098	54758
0	106255	71098	54748
0	106267	71098	54738
0	106278	71098	54728
0	106290	71098	54718
0	106301	71098	54708
0	106313	71098	54698
0	106324	71098	54688
0	106336	71098	54678
0	106347	71098	54668
0	106359	71098	54658
0	106370	71098	54648
0	106382	71098	54638
0	106393	71098	54628
0	106405	71098	54618
0	106416	71098	54608
0	106428	71098	54598
0	106439	71098	54588
0	106451	71098	54578
0	106462	71098	54568
0	106474	71098	54558
0	106485	71098	54548
0	106497	71098	54538
0	106508	71098	54528
0	106520	71098	54518
0	106531	71098	54508
0	106543	71098	54498
0	106554	71098	54488
0	106566	71098	54478
0	106577	71098	54468
0	106589	71098	54458
0	106600	71098	54448
0	106612	71098	54438
0	106623	71098	54428
0	106635	71098	54418
0	106646	71098	54408
0	106658	71098	54398
0	106669	71098	54388
0	106681	71098	54378
0	106692	71098	54368
0	106704	71098	54358
0	106715	71098	54348
0	106727	71098	54338
0	106738	71098	54328
0	106750	71098	54318
0	106761	71098	54308
0	106773	71098	54298
0	106784	71098	54288
0	106796	71098	54278
0	106807	71098	54268
0	106819	71098	54258
0	106830	71098	54248
0	106842	71098	54238
0	106853	71098	54228
0	106865	71098	54218
0	106876	71098	54208
0	106888	71098	54198
0	106899	71098	54188
0	106911	71098	54178
0	106922	71098	54168
0	106934	71098	54158
0	106945	71098	54148
0	106957	71098	54138
0	106968	71098	54128
0	106980	71098	54118
0	106991	71098	54108
0	107003	71098	54098
0	107014	71098	54088
0	107026	71098	54078
0	107037	71098	54068
0	107049	71098	54058
0	107060	71098	54048
0	107072	71098	54038
0	107083	71098	54028
0	107095	71098	54018
0	107106	71098	54008
0	107118	71098	53998
0	107129	71098	53988
0	107141	71098	53978
0	107152	71098	53968
0	107164	71098	53958
0	107175	71098	53948
0	107187	71098	53938
0	107198	71098	53928
0	107210	71098	53918
0	107221	71098	53908
0	107233	71098	53898
0	107244	71098	53888
0	107256	71098	53878
0	107267	71098	53868
0	107279	71098	53858
0	107290	71098	53848
0	107302	71098	53838
0	107313	71098	53828
0	107325	71098	53818
0	107336	71098	53808
0	107348	71098	53798
0	107359	71098	53788
0	107371	71098	53778
0	107382	71098	53768
0	107394	71098	53758
0	107405	71098	53748
0	107417	71098	53738
0	107428	71098	53728
0	107440	71098	53718
0	107451	71098	53708
0	107463	71098	53698
0	107474	71098	53688
0	107486	71098	53678
0	107497	71098	53668
0	107509	71098	53658
0	107520	71098	53648
0	107532	71098	53638
0	107543	71098	53628
0	107555	71098	53618
0	107566	71098	53608
0	107578	71098	53598
0	107589	71098	53588
0	107601	71098	53578
0	107612	71098	53568
0	107624	71098	53558
0	107635	71098	53548
0	107647	71098	53538
0	107658	71098	53528
0	107670	71098	53518
0	107681	71098	53508
0	107693	71098	53498
0	107704	71098	53488
0	107716	71098	53478
0	107727	71098	53468
0	107739	71098	53458
0	107750	71098	53448
0	107762	71098	53438
0	107773	71098	53428
0	107785	71098	53418
0	107796	71098	53408
0	107808	71098	53398
0	107819	71098	53388
0	107831	71098	53378
0	107842	71098	53368
0	107854	71098	53358
0	107865	71098	53348
0	107877	71098	53338
0	107888	71098	53328
0	107900	71098	53318
0	107911	71098	53308
0	107923	71098	53298
0	107934	71098	53288
0	107946	71098	53278
0	107957	71098	53268
0	107969	71098	53258
0	107980	71098	53248
0	107992	71098	53238
0	108003	71098	53228
0	108015	71098	53218
0	108026	71098	53208
0	108038	71098	53198
0	108049	71098	53188
0	108061	71098	53178
0	108072	71098	53168
0	108084	71098	53158
0	108095	71098	53148
0	108107	71098	53138
0	108118	71098	53128
0	108130	71098	53118
0	108141	71098	53108
0	108153	71098	53098
0	108164	71098	53088
0	108176	71098	53078
0	108187	71098	53068
0	108199	71098	53058
0	108210	71098	53048
0	108222	71098	53038
0	108233	71098	53028
0	108245	71098	53018
0	108256	71098	53008
0	108268	71098	52998
0	108279	71098	52988
0	108291	71098	52978
0	108302	71098	52968
0	108314	71098	52958
0	108325	71098	52948
0	108337	71098	52938
0	108348	71098	52928
0	108360	71098	52918
0	108371	71098	52908
0	108383	71098	52898
0	108394	71098	52888
0	108406	71098	52878
0	108417	71098	52868
0	108429	71098	52858
0	108440	71098	52848
0	108452	71098	52838
0	108463	71098	52828
0	108475	71098	52818
0	108486	71098	52808
0	108498	71098	52798
0	108509	71098	52788
0	108521	71098	52778
0	108532	71098	52768
0	108544	71098	52758
0	108555	71098	52748
0	108567	71098	52738
0	108578	71098	52728
0	108590	71098	52718
0	108601	71098	52708
0	108613	71098	52698
0	108624	71098	52688
0	108636	71098	52678
0	108647	71098	52668
0	108659	71098	52658
0	108670	71098	52648
0	108682	71098	52638
0	108693	71098	52628
0	108705	71098	52618
0	108716	71098	52608
0	108728	71098	52598
0	108739	71098	52588
0	108751	71098	52578
0	108762	71098	52568
0	108774	71098	52558
0	108785	71098	52548
0	108797	71098	52538
0	108808	71098	52528
0	108820	71098	52518
0	108831	71098	52508
0	108843	71098	52498
0	108854	71098	52488
0	108866	71098	52478
0	108877	71098	52468
0	108889	71098	52458
0	108900	71098	52448
0	108912	71098	52438
0	108923	71098	52428
0	108935	71098	52418
0	108946	71098	52408
0	108958	71098	52398
0	108969	71098	52388
0	108981	71098	52378
0	108992	71098	52368
0	109004	71098	52358
0	109015	71098	52348
0	109027	71098	52338
0	109038	71098	52328
0	109050	71098	52318
0	109061	71098	52308
0	109073	71098	52298
0	109084	71098	52288
0	109096	71098	52278
0	109107	71098	52268
0	109119	71098	52258
0	109130	71098	52248
0	109142	71098	52238
0	109153	71098	52228
0	109165	71098	52218
0	109176	71098	52208
0	109188	71098	52198
0	109199	71098	52188
0	109211	71098	52178
0	109222	71098	52168
0	109234	71098	52158
0	109245	71098	52148
0	109257	71098	52138
0	109268	71098	52128
0	109280	71098	52118
0	109291	71098	52108
0	109303	71098	52098
0	109314	71098	52088
0	109326	71098	52078
0	109337	71098	52068
0	109349	71098	52058
0	109360	71098	52048
0	109372	71098	52038
0	109383	71098	52028
0	109395	71098	52018
0	109406	71098	52008
0	109418	71098	51998
0	109429	71098	51988
0	109441	71098	51978
0	109452	71098	51968
0	109464	71098	51958
0	109475	71098	51948
0	109487	71098	51938
0	109498	71098	51928
0	109510	71098	51918
0	109521	71098	51908
0	109533	71098	51898
0	109544	71098	51888
0	109556	71098	51878
0	109567	71098	51868
0	109579	71098	51858
0	109590	71098	51848
0	109602	71098	51838
0	109613	71098	51828
0	109625	71098	51818
0	109636	71098	51808
0	109648	71098	51798
0	109659	71098	51788
0	109671	71098	51778
0	109682	71098	51768
0	109694	71098	51758
0	109705	71098	51748
0	109717	71098	51738
0	109728	71098	51728
0	109740	71098	51718
0	109751	71098	51708
0	109763	71098	51698
0	109774	71098	51688
0	109786	71098	51678
0	109797	71098	51668
0	109809	71098	51658
0	109820	71098	51648
0	109832	71098	51638
0	109843	71098	51628
0	109855	71098	51618
0	109866	71098	51608
0	109878	71098	51598
0	109889	71098	51588
0	109901	71098	51578
0	109912	71098	51568
0	109924	71098	51558
0	109935	71098	51548
0	109947	71098	51538
0	109958	71098	51528
0	109970	71098	51518
0	109981	71098	51508
0	109993	71098	51498
0	110004	71098	51488
0	110016	71098	51478
0	110027	71098	51468
0	110039	71098	51458
0	110050	71098	51448
0	110062	71098	51438
0	110073	71098	51428
0	110085	71098	51418
0	110096	71098	51408
0	110108	71098	51398
0	110119	71098	51388
0	110131	71098	51378
0	110142	71098	51368
0	110154	71098	51358
0	110165	71098	51348
0	110177	71098	51338
0	110188	71098	51328
0	110200	71098	51318
0	110211	71098	51308
0	110223	71098	51298
0	110234	71098	51288
0	110246	71098	51278
0	110257	71098	51268
0	110269	71098	51258
0	110280	71098	51248
0	110292	71098	51238
0	110303	71098	51228
0	110315	71098	51218
0	110326	71098	51208
0	110338	71098	51198
0	110349	71098	51188
0	110361	71098	51178
0	110372	71098	51168
0	110384	71098	51158
0	110395	71098	51148
0	110407	71098	51138
0	110418	71098	51128
0	110430	71098	51118
0	110441	71098	51108
0	110453	71098	51098
0	110464	71098	51088
0	110476	71098	51078
0	110487	71098	51068
0	110499	71098	51058
0	110510	71098	51048
0	110522	71098	51038
0	110533	71098	51028
0	110545	71098	51018
0	110556	71098	51008
0	110568	71098	50998
0	110579	71098	50988
0	110591	71098	50978
0	110602	71098	50968
0	110614	71098	50958
0	110625	71098	50948
0	110637	71098	50938
0	110648	71098	50928
0	110660	71098	50918
0	110671	71098	50908
0	110683	71098	50898
0	110694	71098	50888
0	110706	71098	50878
0	110717	71098	50868
0	110729	71098	50858
0	110740	71098	50848
0	110752	71098	50838
0	110763	71098	50828
0	110775	71098	50818
0	110786	71098	50808
0	110798	71098	50798
0	110809	71098	50788
0	110821	71098	50778
0	110832	71098	50768
0	110844	71098	50758
0	110855	71098	50748
0	110867	71098	50738
0	110878	71098	50728
0	110890	71098	50718
0	110901	71098	50708
0	110913	71098	50698
0	110924	71098	50688
0	110936	71098	50678
0	110947	71098	50668
0	110959	71098	50658
0	110970	71098	50648
0	110982	71098	50638
0	110993	71098	50628
0	111005	71098	50618
0	111016	71098	50608
0	111028	71098	50598
0	111039	71098	50588
0	111051	71098	50578
0	111062	71098	50568
0	111074	71098	50558
0	111085	71098	50548
0	111097	71098	50538
0	111108	71098	50528
0	111120	71098	50518
0	111131	71098	50508
0	111143	71098	50498
0	111154	71098	50488
0	111166	71098	50478
0	111177	71098	50468
0	111189	71098	50458
0	111200	71098	50448
0	111212	71098	50438
0	111223	71098	50428
0	111235	71098	50418
0	111246	71098	50408
0	111258	71098	50398
0	111269	71098	50388
0	111281	71098	50378
0	111292	71098	50368
0	111304	71098	50358
0	111315	71098	50348
0	111327	71098	50338
0	111338	71098	50328
0	111350	71098	50318
0	111361	71098	50308
0	111373	71098	50298
0	111384	71098	50288
0	111396	71098	50278
0	111407	71098	50268
0	111419	71098	50258
0	111430	71098	50248
0	111442	71098	50238
0	111453	71098	50228
0	111465	71098	50218
0	111476	71098	50208
0	111488	71098	50198
0	111499	71098	50188
0	111511	71098	50178
0	111522	71098	50168
0	111534	71098	50158
0	111545	71098	50148
0	111557	71098	50138
0	111568	71098	50128
0	111580	71098	50118
0	111591	71098	50108
0	111603	71098	50098
0	111614	71098	50088
0	111626	71098	50078
0	111637	71098	50068
0	111649	71098	50058
0	111660	71098	50048
0	111672	71098	50038
0	111683	71098	50028
0	111695	71098	50018
0	111706	71098	50008
0	111718	71098	49998
0	111729	71098	49988
0	111741	71098	49978
0	111752	71098	49968
0	111764	71098	49958
0	111775	71098	49948
0	111787	71098	49938
0	111798	71098	49928
0	111810	71098	49918
0	111821	71098	49908
0	111833	71098	49898
0	111844	71098	49888
0	111856	71098	49878
0	111867	71098	49868
0	111879	71098	49858
0	111890	71098	49848
0	111902	71098	49838
0	111913	71098	49828
0	111925	71098	49818
0	111936	71098	49808
0	111948	71098	49798
0	111959	71098	49788
0	111971	71098	49778
0	111982	71098	49768
0	111994	71098	49758
0	112005	71098	49748
0	112017	71098	49738
0	112028	71098	49728
0	112040	71098	49718
0	112051	71098	49708
0	112063	71098	49698
0	112074	71098	49688
0	112086	71098	49678
0	112097	71098	49668
0	112109	71098	49658
0	112120	71098	49648
0	112132	71098	49638
0	112143	71098	49628
0	112155	71098	49618
0	112166	71098	49608
0	112178	71098	49598
0	112189	71098	49588
0	112201	71098	49578
0	112212	71098	49568
0	112224	71098	49558
0	112235	71098	49548
0	112247	71098	49538
0	112258	71098	49528
0	112270	71098	49518
0	112281	71098	49508
0	112293	71098	49498
0	112304	71098	49488
0	112316	71098	49478
0	112327	71098	49468
0	112339	71098	49458
0	112350	71098	49448
0	112362	71098	49438
0	112373	71098	49428
0	112385	71098	49418
0	112396	71098	49408
0	112408	71098	49398
0	112419	71098	49388
0	112431	71098	49378
0	112442	71098	49368
0	112454	71098	49358
0	112465	71098	49348
0	112477	71098	49338
0	112488	71098	49328
0	112500	71098	49318
0	112511	71098	49308
0	112523	71098	49298
0	112534	71098	49288
0	112546	71098	49278
0	112557	71098	49268
0	112569	71098	49258
0	112580	71098	49248
0	112592	71098	49238
0	112603	71098	49228
0	112615	71098	49218
0	112626	71098	49208
0	112638	71098	49198
0	112649	71098	49188
0	112661	71098	49178
0	112672	71098	49168
0	112684	71098	49158
0	112695	71098	49148
0	112707	71098	49138
0	112718	71098	49128
0	112730	71098	49118
0	112741	71098	49108
0	112753	71098	49098
0	112764	71098	49088
0	112776	71098	49078
0	112787	71098	49068
0	112799	71098	49058
0	112810	71098	49048
0	112822	71098	49038
0	112833	71098	49028
0	112845	71098	49018
0	112856	71098	49008
0	112868	71098	48998
0	112879	71098	48988
0	112891	71098	48978
0	112902	71098	48968
0	112914	71098	48958
0	112925	71098	48948
0	112937	71098	48938
0	112948	71098	48928
0	112960	71098	48918
0	112971	71098	48908
0	112983	71098	48898
0	112994	71098	48888
0	113006	71098	48878
0	113017	71098	48868
0	113029	71098	48858
0	113040	71098	48848
0	113052	71098	48838
0	113063	71098	48828
0	113075	71098	48818
0	113086	71098	48808
0	113098	71098	48798
0	113109	71098	48788
0	113121	71098	48778
0	113132	71098	48768
0	113144	71098	48758
0	113155	71098	48748
0	113167	71098	48738
0	113178	71098	48728
0	113190	71098	48718
0	113201	71098	48708
0	113213	71098	48698
0	113224	71098	48688
0	113236	71098	48678
0	113247	71098	48668
0	113259	71098	48658
0	113270	71098	48648
0	113282	71098	48638
0	113293	71098	48628
0	113305	71098	48618
0	113316	71098	48608
0	113328	71098	48598
0	113339	71098	48588
0	113351	71098	48578
0	113362	71098	48568
0	113374	71098	48558
0	113385	71098	48548
0	113397	71098	48538
0	113408	71098	48528
0	113420	71098	48518
0	113431	71098	48508
0	113443	71098	48498
0	113454	71098	48488
0	113466	71098	48478
0	113477	71098	48468
0	113489	71098	48458
0	113500	71098	48448
0	113512	71098	48438
0	113523	71098	48428
0	113535	71098	48418
0	113546	71098	48408
0	113558	71098	48398
0	113569	71098	48388
0	113581	71098	48378
0	113592	71098	48368
0	113604	71098	48358
0	113615	71098	48348
0	113627	71098	48338
0	113638	71098	48328
0	113650	71098	48318
0	113661	71098	48308
0	113673	71098	48298
0	113684	71098	48288
0	113696	71098	48278
0	113707	71098	48268
0	113719	71098	48258
0	113730	71098	48248
0	113742	71098	48238
0	113753	71098	48228
0	113765	71098	48218
0	113776	71098	48208
0	113788	71098	48198
0	113799	71098	48188
0	113811	71098	48178
0	113822	71098	48168
0	113834	71098	48158
0	113845	71098	48148
0	113857	71098	48138
0	113868	71098	48128
0	113880	71098	48118
0	113891	71098	48108
0	113903	71098	48098
0	113914	71098	48088
0	113926	71098	48078
0	113937	71098	48068
0	113949	71098	48058
0	113960	71098	48048
0	113972	71098	48038
0	113983	71098	48028
0	113995	71098	48018
0	114006	71098	48008
0	114018	71098	47998
0	114029	71098	47988
0	114041	71098	47978
0	114052	71098	47968
0	114064	71098	47958
0	114075	71098	47948
0	114087	71098	47938
0	114098	71098	47928
0	114110	71098	47918
0	114121	71098	47908
0	114133	71098	47898
0	114144	71098	47888
0	114156	71098	47878
0	114167	71098	47868
0	114179	71098	47858
0	114190	71098	47848
0	114202	71098	47838
0	114213	71098	47828
0	114225	71098	47818
0	114236	71098	47808
0	114248	71098	47798
0	114259	71098	47788
0	114271	71098	47778
0	114282	71098	47768
0	114294	71098	47758
0	114305	71098	47748
0	114317	71098	47738
0	114328	71098	47728
0	114340	71098	47718
0	114351	71098	47708
0	114363	71098	47698
0	114374	71098	47688
0	114386	71098	47678
0	114397	71098	47668
0	114409	71098	47658
0	114420	71098	47648
0	114432	71098	47638
0	114443	71098	47628
0	114455	71098	47618
0	114466	71098	47608
0	114478	71098	47598
0	114489	71098	47588
0	114501	71098	47578
0	114512	71098	47568
0	114524	71098	47558
0	114535	71098	47548
0	114547	71098	47538
0	114558	71098	47528
0	114570	71098	47518
0	114581	71098	47508
0	114593	71098	47498
0	114604	71098	47488
0	114616	71098	47478
0	114627	71098	47468
0	114639	71098	47458
0	114650	71098	47448
0	114662	71098	47438
0	114673	71098	47428
0	114685	71098	47418
0	114696	71098	47408
0	114708	71098	47398
0	114719	71098	47388
0	114731	71098	47378
0	114742	71098	47368
0	114754	71098	47358
0	114765	71098	47348
0	114777	71098	47338
0	114788	71098	47328
0	114800	71098	47318
0	114811	71098	47308
0	114823	71098	47298
0	114834	71098	47288
0	114846	71098	47278
0	114857	71098	47268
0	114869	71098	47258
0	114880	71098	47248
0	114892	71098	47238
0	114903	71098	47228
0	114915	71098	47218
0	114926	71098	47208
0	114938	71098	47198
0	114949	71098	47188
0	114961	71098	47178
0	114972	71098	47168
0	114984	71098	47158
0	114995	71098	47148
0	115007	71098	47138
0	115018	71098	47128
0	115030	71098	47118
0	115041	71098	47108
0	115053	71098	47098
0	115064	71098	47088
0	115076	71098	47078
0	115087	71098	47068
0	115099	71098	47058
0	115110	71098	47048
0	115122	71098	47038
0	115133	71098	47028
0	115145	71098	47018
0	115156	71098	47008
0	115168	71098	46998
0	115179	71098	46988
0	115191	71098	46978
0	115202	71098	46968
0	115214	71098	46958
0	115225	71098	46948
0	115237	71098	46938
0	115248	71098	46928
0	115260	71098	46918
0	115271	71098	46908
0	115283	71098	46898
0	115294	71098	46888
0	115306	71098	46878
0	115317	71098	46868
0	115329	71098	46858
0	115340	71098	46848
0	115352	71098	46838
0	115363	71098	46828
0	115375	71098	46818
0	115386	71098	46808
0	115398	71098	46798
0	115409	71098	46788
0	115421	71098	46778
0	115432	71098	46768
0	115444	71098	46758
0	115455	71098	46748
0	115467	71098	46738
0	115478	71098	46728
0	115490	71098	46718
0	115501	71098	46708
0	115513	71098	46698
0	115524	71098	46688
0	115536	71098	46678
0	115547	71098	46668
0	115559	71098	46658
0	115570	71098	46648
0	115582	71098	46638
0	115593	71098	46628
0	115605	71098	46618
0	115616	71098	46608
0	115628	71098	46598
0	115639	71098	46588
0	115651	71098	46578
0	115662	71098	46568
0	115674	71098	46558
0	115685	71098	46548
0	115697	71098	46538
0	115708	71098	46528
0	115720	71098	46518
0	115731	71098	46508
0	115743	71098	46498
0	115754	71098	46488
0	115766	71098	46478
0	115777	71098	46468
0	115789	71098	46458
0	115800	71098	46448
0	115812	71098	46438
0	115823	71098	46428
0	115835	71098	46418
0	115846	71098	46408
0	115858	71098	46398
0	115869	71098	46388
0	115881	71098	46378
0	115892	71098	46368
0	115904	71098	46358
0	115915	71098	46348
0	115927	71098	46338
0	115938	71098	46328
0	115950	71098	46318
0	115961	71098	46308
0	115973	71098	46298
0	115984	71098	46288
0	115996	71098	46278
0	116007	71098	46268
0	116019	71098	46258
0	116030	71098	46248
0	116042	71098	46238
0	116053	71098	46228
0	116065	71098	46218
0	116076	71098	46208
0	116088	71098	46198
0	116099	71098	46188
0	116111	71098	46178
0	116122	71098	46168
0	116134	71098	46158
0	116145	71098	46148
0	116157	71098	46138
0	116168	71098	46128
0	116180	71098	46118
0	116191	71098	46108
0	116203	71098	46098
0	116214	71098	46088
0	116226	71098	46078
0	116237	71098	46068
0	116249	71098	46058
0	116260	71098	46048
0	116272	71098	46038
0	116283	71098	46028
0	116295	71098	46018
0	116306	71098	46008
0	116318	71098	45998
0	116329	71098	45988
0	116341	71098	45978
0	116352	71098	45968
0	116364	71098	45958
0	116375	71098	45948
0	116387	71098	45938
0	116398	71098	45928
0	116410	71098	45918
0	116421	71098	45908
0	116433	71098	45898
0	116444	71098	45888
0	116456	71098	45878
0	116467	71098	45868
0	116479	71098	45858
0	116490	71098	45848
0	116502	71098	45838
0	116513	71098	45828
0	116525	71098	45818
0	116536	71098	45808
0	116548	71098	45798
0	116559	71098	45788
0	116571	71098	45778
0	116582	71098	45768
0	116594	71098	45758
0	116605	71098	45748
0	116617	71098	45738
0	116628	71098	45728
0	116640	71098	45718
0	116651	71098	45708
0	116663	71098	45698
0	116674	71098	45688
0	116686	71098	45678
0	116697	71098	45668
0	116709	71098	45658
0	116720	71098	45648
0	116732	71098	45638
0	116743	71098	45628
0	116755	71098	45618
0	116766	71098	45608
0	116778	71098	45598
0	116789	71098	45588
0	116801	71098	45578
0	116812	71098	45568
0	116824	71098	45558
0	116835	71098	45548
0	116847	71098	45538
0	116858	71098	45528
0	116870	71098	45518
0	116881	71098	45508
0	116893	71098	45498
0	116904	71098	45488
0	116916	71098	45478
0	116927	71098	45468
0	116939	71098	45458
0	116950	71098	45448
0	116962	71098	45438
0	116973	71098	45428
0	116985	71098	45418
0	116996	71098	45408
0	117008	71098	45398
0	117019	71098	45388
0	117031	71098	45378
0	117042	71098	45368
0	117054	71098	45358
0	117065	71098	45348
0	117077	71098	45338
0	117088	71098	45328
0	117100	71098	45318
0	117111	71098	45308
0	117123	71098	45298
0	117134	71098	45288
0	117146	71098	45278
0	117157	71098	45268
0	117169	71098	45258
0	117180	71098	45248
0	117192	71098	45238
0	117203	71098	45228
0	117215	71098	45218
0	117226	71098	45208
0	117238	71098	45198
0	117249	71098	45188
0	117261	71098	45178
0	117272	71098	45168
0	117284	71098	45158
0	117295	71098	45148
0	117307	71098	45138
0	117318	71098	45128
0	117330	71098	45118
0	117341	71098	45108
0	117353	71098	45098
0	117364	71098	45088
0	117376	71098	45078
0	117387	71098	45068
0	117399	71098	45058
0	117410	71098	45048
0	117422	71098	45038
0	117433	71098	45028
0	117445	71098	45018
0	117456	71098	45008
0	117468	71098	44998
0	117479	71098	44988
0	117491	71098	44978
0	117502	71098	44968
0	117514	71098	44958
0	117525	71098	44948
0	117537	71098	44938
0	117548	71098	44928
0	117560	71098	44918
0	117571	71098	44908
0	117583	71098	44898
0	117594	71098	44888
0	117606	71098	44878
0	117617	71098	44868
0	117629	71098	44858
0	117640	71098	44848
0	117652	71098	44838
0	117663	71098	44828
0	117675	71098	44818
0	117686	71098	44808
0	117698	71098	44798
0	117709	71098	44788
0	117721	71098	44778
0	117732	71098	44768
0	117744	71098	44758
0	117755	71098	44748
0	117767	71098	44738
0	117778	71098	44728
0	117790	71098	44718
0	117801	71098	44708
0	117813	71098	44698
0	117824	71098	44688
0	117836	71098	44678
0	117847	71098	44668
0	117859	71098	44658
0	117870	71098	44648
0	117882	71098	44638
0	117893	71098	44628
0	117905	71098	44618
0	117916	71098	44608
0	117928	71098	44598
0	117939	71098	44588
0	117951	71098	44578
0	117962	71098	44568
0	117974	71098	44558
0	117985	71098	44548
0	117997	71098	44538
0	118008	71098	44528
0	118020	71098	44518
0	118031	71098	44508
0	118043	71098	44498
0	118054	71098	44488
0	118066	71098	44478
0	118077	71098	44468
0	118089	71098	44458
0	118100	71098	44448
0	118112	71098	44438
0	118123	71098	44428
0	118135	71098	44418
0	118146	71098	44408
0	118158	71098	44398
0	118169	71098	44388
0	118181	71098	44378
0	118192	71098	44368
0	118204	71098	44358
0	118215	71098	44348
0	118227	71098	44338
0	118238	71098	44328
0	118250	71098	44318
0	118261	71098	44308
0	118273	71098	44298
0	118284	71098	44288
0	118296	71098	44278
0	118307	71098	44268
0	118319	71098	44258
0	118330	71098	44248
0	118342	71098	44238
0	118353	71098	44228
0	118365	71098	44218
0	118376	71098	44208
0	118388	71098	44198
0	118399	71098	44188
0	118411	71098	44178
0	118422	71098	44168
0	118434	71098	44158
0	118445	71098	44148
0	118457	71098	44138
0	118468	71098	44128
0	118480	71098	44118
0	118491	71098	44108
0	118503	71098	44098
0	118514	71098	44088
0	118526	71098	44078
0	118537	71098	44068
0	118549	71098	44058
0	118560	71098	44048
0	118572	71098	44038
0	118583	71098	44028
0	118595	71098	44018
0	118606	71098	44008
0	118618	71098	43998
0	118629	71098	43988
0	118641	71098	43978
0	118652	71098	43968
0	118664	71098	43958
0	118675	71098	43948
0	118687	71098	43938
0	118698	71098	43928
0	118710	71098	43918
0	118721	71098	43908
0	118733	71098	43898
0	118744	71098	43888
0	118756	71098	43878
0	118767	71098	43868
0	118779	71098	43858
0	118790	71098	43848
0	118802	71098	43838
0	118813	71098	43828
0	118825	71098	43818
0	118836	71098	43808
0	118848	71098	43798
0	118859	71098	43788
0	118871	71098	43778
0	118882	71098	43768
0	118894	71098	43758
0	118905	71098	43748
0	118917	71098	43738
0	118928	71098	43728
0	118940	71098	43718
0	118951	71098	43708
0	118963	71098	43698
0	118974	71098	43688
0	118986	71098	43678
0	118997	71098	43668
0	119009	71098	43658
0	119020	71098	43648
0	119032	71098	43638
0	119043	71098	43628
0	119055	71098	43618
0	119066	71098	43608
0	119078	71098	43598
0	119089	71098	43588
0	119101	71098	43578
0	119112	71098	43568
0	119124	71098	43558
0	119135	71098	43548
0	119147	71098	43538
0	119158	71098	43528
0	119170	71098	43518
0	119181	71098	43508
0	119193	71098	43498
0	119204	71098	43488
0	119216	71098	43478
0	119227	71098	43468
0	119239	71098	43458
0	119250	71098	43448
0	119262	71098	43438
0	119273	71098	43428
0	119285	71098	43418
0	119296	71098	43408
0	119308	71098	43398
0	119319	71098	43388
0	119331	71098	43378
0	119342	71098	43368
0	119354	71098	43358
0	119365	71098	43348
0	119377	71098	43338
0	119388	71098	43328
0	119400	71098	43318
0	119411	71098	43308
0	119423	71098	43298
0	119434	71098	43288
0	119446	71098	43278
0	119457	71098	43268
0	119469	71098	43258
0	119480	71098	43248
0	119492	71098	43238
0	119503	71098	43228
0	119515	71098	43218
0	119526	71098	43208
0	119538	71098	43198
0	119549	71098	43188
0	119561	71098	43178
0	119572	71098	43168
0	119584	71098	43158
0	119595	71098	43148
0	119607	71098	43138
0	119618	71098	43128
0	119630	71098	43118
0	119641	71098	43108
0	119653	71098	43098
0	119664	71098	43088
0	119676	71098	43078
0	119687	71098	43068
0	119699	71098	43058
0	119710	71098	43048
0	119722	71098	43038
0	119733	71098	43028
0	119745	71098	43018
0	119756	71098	43008
0	119768	71098	42998
0	119779	71098	42988
0	119791	71098	42978
0	119802	71098	42968
0	119814	71098	42958
0	119825	71098	42948
0	119837	71098	42938
0	119848	71098	42928
0	119860	71098	42918
0	119871	71098	42908
0	119883	71098	42898
0	119894	71098	42888
0	119906	71098	42878
0	119917	71098	42868
0	119929	71098	42858
0	119940	71098	42848
0	119952	71098	42838
0	119963	71098	42828
0	119975	71098	42818
0	119986	71098	42808
0	119998	71098	42798
0	120009	71098	42788
0	120021	71098	42778
0	120032	71098	42768
0	120044	71098	42758
0	120055	71098	42748
0	120067	71098	42738
0	120078	71098	42728
0	120090	71098	42718
0	120101	71098	42708
0	120113	71098	42698
0	120124	71098	42688
0	120136	71098	42678
0	120147	71098	42668
0	120159	71098	42658
0	120170	71098	42648
0	120182	71098	42638
0	120193	71098	42628
0	120205	71098	42618
0	120216	71098	42608
0	120228	71098	42598
0	120239	71098	42588
0	120251	71098	42578
0	120262	71098	42568
0	120274	71098	42558
0	120285	71098	42548
0	120297	71098	42538
0	120308	71098	42528
0	120320	71098	42518
0	120331	71098	42508
0	120343	71098	42498
0	120354	71098	42488
0	120366	71098	42478
0	120377	71098	42468
0	120389	71098	42458
0	120400	71098	42448
0	120412	71098	42438
0	120423	71098	42428
0	120435	71098	42418
0	120446	71098	42408
0	120458	71098	42398
0	120469	71098	42388
0	120481	71098	42378
0	120492	71098	42368
0	120504	71098	42358
0	120515	71098	42348
0	120527	71098	42338
0	120538	71098	42328
0	120550	71098	42318
0	120561	71098	42308
0	120573	71098	42298
0	120584	71098	42288
0	120596	71098	42278
0	120607	71098	42268
0	120619	71098	42258
0	120630	71098	42248
0	120642	71098	42238
0	120653	71098	42228
0	120665	71098	42218
0	120676	71098	42208
0	120688	71098	42198
0	120699	71098	42188
0	120711	71098	42178
0	120722	71098	42168
0	120734	71098	42158
0	120745	71098	42148
0	120757	71098	42138
0	120768	71098	42128
0	120780	71098	42118
0	120791	71098	42108
0	120803	71098	42098
0	120814	71098	42088
0	120826	71098	42078
0	120837	71098	42068
0	120849	71098	42058
0	120860	71098	42048
0	120872	71098	42038
0	120883	71098	42028
0	120895	71098	42018
0	120906	71098	42008
0	120918	71098	41998
0	120929	71098	41988
0	120941	71098	41978
0	120952	71098	41968
0	120964	71098	41958
0	120975	71098	41948
0	120987	71098	41938
0	120998	71098	41928
0	121010	71098	41918
0	121021	71098	41908
0	121033	71098	41898
0	121044	71098	41888
0	121056	71098	41878
0	121067	71098	41868
0	121079	71098	41858
0	121090	71098	41848
0	121102	71098	41838
0	121113	71098	41828
0	121125	71098	41818
0	121136	71098	41808
0	121148	71098	41798
0	121159	71098	41788
0	121171	71098	41778
0	121182	71098	41768
0	121194	71098	41758
0	121205	71098	41748
0	121217	71098	41738
0	121228	71098	41728
0	121240	71098	41718
0	121251	71098	41708
0	121263	71098	41698
0	121274	71098	41688
0	121286	71098	41678
0	121297	71098	41668
0	121309	71098	41658
0	121320	71098	41648
0	121332	71098	41638
0	121343	71098	41628
0	121355	71098	41618
0	121366	71098	41608
0	121378	71098	41598
0	121389	71098	41588
0	121401	71098	41578
0	121412	71098	41568
0	121424	71098	41558
0	121435	71098	41548
0	121447	71098	41538
0	121458	71098	41528
0	121470	71098	41518
0	121481	71098	41508
0	121493	71098	41498
0	121504	71098	41488
0	121516	71098	41478
0	121527	71098	41468
0	121539	71098	41458
0	121550	71098	41448
0	121562	71098	41438
0	121573	71098	41428
0	121585	71098	41418
0	121596	71098	41408
0	121608	71098	41398
0	121619	71098	41388
0	121631	71098	41378
0	121642	71098	41368
0	121654	71098	41358
0	121665	71098	41348
0	121677	71098	41338
0	121688	71098	41328
0	121700	71098	41318
0	121711	71098	41308
0	121723	71098	41298
0	121734	71098	41288
0	121746	71098	41278
0	121757	71098	41268
0	121769	71098	41258
0	121780	71098	41248
0	121792	71098	41238
0	121803	71098	41228
0	121815	71098	41218
0	121826	71098	41208
0	121838	71098	41198
0	121849	71098	41188
0	121861	71098	41178
0	121872	71098	41168
0	121884	71098	41158
0	121895	71098	41148
0	121907	71098	41138
0	121918	71098	41128
0	121930	71098	41118
0	121941	71098	41108
0	121953	71098	41098
0	121964	71098	41088
0	121976	71098	41078
0	121987	71098	41068
0	121999	71098	41058
0	122010	71098	41048
0	122022	71098	41038
0	122033	71098	41028
0	122045	71098	41018
0	122056	71098	41008
0	122068	71098	40998
0	122079	71098	40988
0	122091	71098	40978
0	122102	71098	40968
0	122114	71098	40958
0	122125	71098	40948
0	122137	71098	40938
0	122148	71098	40928
0	122160	71098	40918
0	122171	71098	40908
0	122183	71098	40898
0	122194	71098	40888
0	122206	71098	40878
0	122217	71098	40868
0	122229	71098	40858
0	122240	71098	40848
0	122252	71098	40838
0	122263	71098	40828
0	122275	71098	40818
0	122286	71098	40808
0	122298	71098	40798
0	122309	71098	40788
0	122321	71098	40778
0	122332	71098	40768
0	122344	71098	40758
0	122355	71098	40748
0	122367	71098	40738
0	122378	71098	40728
0	122390	71098	40718
0	122401	71098	40708
0	122413	71098	40698
0	122424	71098	40688
0	122436	71098	40678
0	122447	71098	40668
0	122459	71098	40658
0	122470	71098	40648
0	122482	71098	40638
0	122493	71098	40628
0	122505	71098	40618
0	122516	71098	40608
0	122528	71098	40598
0	122539	71098	40588
0	122551	71098	40578
0	122562	71098	40568
0	122574	71098	40558
0	122585	71098	40548
0	122597	71098	40538
0	122608	71098	40528
0	122620	71098	40518
0	122631	71098	40508
0	122643	71098	40498
0	122654	71098	40488
0	122666	71098	40478
0	122677	71098	40468
0	122689	71098	40458
0	122700	71098	40448
0	122712	71098	40438
0	122723	71098	40428
0	122735	71098	40418
0	122746	71098	40408
0	122758	71098	40398
0	122769	71098	40388
0	122781	71098	40378
0	122792	71098	40368
0	122804	71098	40358
0	122815	71098	40348
0	122827	71098	40338
0	122838	71098	40328
0	122850	71098	40318
0	122861	71098	40308
0	122873	71098	40298
0	122884	71098	40288
0	122896	71098	40278
0	122907	71098	40268
0	122919	71098	40258
0	122930	71098	40248
0	122942	71098	40238
0	122953	71098	40228
0	122965	71098	40218
0	122976	71098	40208
0	122988	71098	40198
0	122999	71098	40188
0	123011	71098	40178
0	123022	71098	40168
0	123034	71098	40158
0	123045	71098	40148
0	123057	71098	40138
0	123068	71098	40128
0	123080	71098	40118
0	123091	71098	40108
0	123103	71098	40098
0	123114	71098	40088
0	123126	71098	40078
0	123137	71098	40068
0	123149	71098	40058
0	123160	71098	40048
0	123172	71098	40038
0	123183	71098	40028
0	123195	71098	40018
0	123206	71098	40008
0	123218	71098	39998
0	123229	71098	39988
0	123241	71098	39978
0	123252	71098	39968
0	123264	71098	39958
0	123275	71098	39948
0	123287	71098	39938
0	123298	71098	39928
0	123310	71098	39918
0	123321	71098	39908
0	123333	71098	39898
0	123344	71098	39888
0	123356	71098	39878
0	123367	71098	39868
0	123379	71098	39858
0	123390	71098	39848
0	123402	71098	39838
0	123413	71098	39828
0	123425	71098	39818
0	123436	71098	39808
0	123448	71098	39798
0	123459	71098	39788
0	123471	71098	39778
0	123482	71098	39768
0	123494	71098	39758
0	123505	71098	39748
0	123517	71098	39738
0	123528	71098	39728
0	123540	71098	39718
0	123551	71098	39708
0	123563	71098	39698
0	123574	71098	39688
0	123586	71098	39678
0	123597	71098	39668
0	123609	71098	39658
0	123620	71098	39648
0	123632	71098	39638
0	123643	71098	39628
0	123655	71098	39618
0	123666	71098	39608
0	123678	71098	39598
0	123689	71098	39588
0	123701	71098	39578
0	123712	71098	39568
0	123724	71098	39558
0	123735	71098	39548
0	123747	71098	39538
0	123758	71098	39528
0	123770	71098	39518
0	123781	71098	39508
0	123793	71098	39498
0	123804	71098	39488
0	123816	71098	39478
0	123827	71098	39468
0	123839	71098	39458
0	123850	71098	39448
0	123862	71098	39438
0	123873	71098	39428
0	123885	71098	39418
0	123896	71098	39408
0	123908	71098	39398
0	123919	71098	39388
0	123931	71098	39378
0	123942	71098	39368
0	123954	71098	39358
0	123965	71098	39348
0	123977	71098	39338
0	123988	71098	39328
0	124000	71098	39318
0	124011	71098	39308
0	124023	71098	39298
0	124034	71098	39288
0	124046	71098	39278
0	124057	71098	39268
0	124069	71098	39258
0	124080	71098	39248
0	124092	71098	39238
0	124103	71098	39228
0	124115	71098	39218
0	124126	71098	39208
0	124138	71098	39198
0	124149	71098	39188
0	124161	71098	39178
0	124172	71098	39168
0	124184	71098	39158
0	124195	71098	39148
0	124207	71098	39138
0	124218	71098	39128
0	124230	71098	39118
0	124241	71098	39108
0	124253	71098	39098
0	124264	71098	39088
0	124276	71098	39078
0	124287	71098	39068
0	124299	71098	39058
0	124310	71098	39048
0	124322	71098	39038
0	124333	71098	39028
0	124345	71098	39018
0	124356	71098	39008
0	124368	71098	38998
0	124379	71098	38988
0	124391	71098	38978
0	124402	71098	38968
0	124414	71098	38958
0	124425	71098	38948
0	124437	71098	38938
0	124448	71098	38928
0	124460	71098	38918
0	124471	71098	38908
0	124483	71098	38898
0	124494	71098	38888
0	124506	71098	38878
0	124517	71098	38868
0	124529	71098	38858
0	124540	71098	38848
0	124552	71098	38838
0	124563	71098	38828
0	124575	71098	38818
0	124586	71098	38808
0	124598	71098	38798
0	124609	71098	38788
0	124621	71098	38778
0	124632	71098	38768
0	124644	71098	38758
0	124655	71098	38748
0	124667	71098	38738
0	124678	71098	38728
0	124690	71098	38718
0	124701	71098	38708
0	124713	71098	38698
0	124724	71098	38688
0	124736	71098	38678
0	124747	71098	38668
0	124759	71098	38658
0	124770	71098	38648
0	124782	71098	38638
0	124793	71098	38628
0	124805	71098	38618
0	124816	71098	38608
0	124828	71098	38598
0	124839	71098	38588
0	124851	71098	38578
0	124862	71098	38568
0	124874	71098	38558
0	124885	71098	38548
0	124897	71098	38538
0	124908	71098	38528
0	124920	71098	38518
0	124931	71098	38508
0	124943	71098	38498
0	124954	71098	38488
0	124966	71098	38478
0	124977	71098	38468
0	124989	71098	38458
0	125000	71098	38448
0	125012	71098	38438
0	125023	71098	38428
0	125035	71098	38418
0	125046	71098	38408
0	125058	71098	38398
0	125069	71098	38388
0	125081	71098	38378
0	125092	71098	38368
0	125104	71098	38358
0	125115	71098	38348
0	125127	71098	38338
0	125138	71098	38328
0	125150	71098	38318
0	125161	71098	38308
0	125173	71098	38298
0	125184	71098	38288
0	125196	71098	38278
0	125207	71098	38268
0	125219	71098	38258
0	125230	71098	38248
0	125242	71098	38238
0	125253	71098	38228
0	125265	71098	38218
0	125276	71098	38208
0	125288	71098	38198
0	125299	71098	38188
0	125311	71098	38178
0	125322	71098	38168
0	125334	71098	38158
0	125345	71098	38148
0	125357	71098	38138
0	125368	71098	38128
0	125380	71098	38118
0	125391	71098	38108
0	125403	71098	38098
0	125414	71098	38088
0	125426	71098	38078
0	125437	71098	38068
0	125449	71098	38058
0	125460	71098	38048
0	125472	71098	38038
0	125483	71098	38028
0	125495	71098	38018
0	125506	71098	38008
0	125518	71098	37998
0	125529	71098	37988
0	125541	71098	37978
0	125552	71098	37968
0	125564	71098	37958
0	125575	71098	37948
0	125587	71098	37938
0	125598	71098	37928
0	125610	71098	37918
0	125621	71098	37908
0	125633	71098	37898
0	125644	71098	37888
0	125656	71098	37878
0	125667	71098	37868
0	125679	71098	37858
0	125690	71098	37848
0	125702	71098	37838
0	125713	71098	37828
0	125725	71098	37818
0	125736	71098	37808
0	125748	71098	37798
0	125759	71098	37788
0	125771	71098	37778
0	125782	71098	37768
0	125794	71098	37758
0	125805	71098	37748
0	125817	71098	37738
0	125828	71098	37728
0	125840	71098	37718
0	125851	71098	37708
0	125863	71098	37698
0	125874	71098	37688
0	125886	71098	37678
0	125897	71098	37668
0	125909	71098	37658
0	125920	71098	37648
0	125932	71098	37638
0	125943	71098	37628
0	125955	71098	37618
0	125966	71098	37608
0	125978	71098	37598
0	125989	71098	37588
0	126001	71098	37578
0	126012	71098	37568
0	126024	71098	37558
0	126035	71098	37548
0	126047	71098	37538
0	126058	71098	37528
0	126070	71098	37518
0	126081	71098	37508
0	126093	71098	37498
0	126104	71098	37488
0	126116	71098	37478
0	126127	71098	37468
0	126139	71098	37458
0	126150	71098	37448
0	126162	71098	37438
0	126173	71098	37428
0	126185	71098	37418
0	126196	71098	37408
0	126208	71098	37398
0	126219	71098	37388
0	126231	71098	37378
0	126242	71098	37368
0	126254	71098	37358
0	126265	71098	37348
0	126277	71098	37338
0	126288	71098	37328
0	126300	71098	37318
0	126311	71098	37308
0	126323	71098	37298
0	126334	71098	37288
0	126346	71098	37278
0	126357	71098	37268
0	126369	71098	37258
0	126380	71098	37248
0	126392	71098	37238
0	126403	71098	37228
0	126415	71098	37218
0	126426	71098	37208
0	126438	71098	37198
0	126449	71098	37188
0	126461	71098	37178
0	126472	71098	37168
0	126484	71098	37158
0	126495	71098	37148
0	126507	71098	37138
0	126518	71098	37128
0	126530	71098	37118
0	126541	71098	37108
0	126553	71098	37098
0	126564	71098	37088
0	126576	71098	37078
0	126587	71098	37068
0	126599	71098	37058
0	126610	71098	37048
0	126622	71098	37038
0	126633	71098	37028
0	126645	71098	37018
0	126656	71098	37008
0	126668	71098	36998
0	126679	71098	36988
0	126691	71098	36978
0	126702	71098	36968
0	126714	71098	36958
0	126725	71098	36948
0	126737	71098	36938
0	126748	71098	36928
0	126760	71098	36918
0	126771	71098	36908
0	126783	71098	36898
0	126794	71098	36888
0	126806	71098	36878
0	126817	71098	36868
0	126829	71098	36858
0	126840	71098	36848
0	126852	71098	36838
0	126863	71098	36828
0	126875	71098	36818
0	126886	71098	36808
0	126898	71098	36798
0	126909	71098	36788
0	126921	71098	36778
0	126932	71098	36768
0	126944	71098	36758
0	126955	71098	36748
0	126967	71098	36738
0	126978	71098	36728
0	126990	71098	36718
0	127001	71098	36708
0	127013	71098	36698
0	127024	71098	36688
0	127036	71098	36678
0	127047	71098	36668
0	127059	71098	36658
0	127070	71098	36648
0	127082	71098	36638
0	127093	71098	36628
0	127105	71098	36618
0	127116	71098	36608
0	127128	71098	36598
0	127139	71098	36588
0	127151	71098	36578
0	127162	71098	36568
0	127174	71098	36558
0	127185	71098	36548
0	127197	71098	36538
0	127208	71098	36528
0	127220	71098	36518
0	127231	71098	36508
0	127243	71098	36498
0	127254	71098	36488
0	127266	71098	36478
0	127277	71098	36468
0	127289	71098	36458
0	127300	71098	36448
0	127312	71098	36438
0	127323	71098	36428
0	127335	71098	36418
0	127346	71098	36408
0	127358	71098	36398
0	127369	71098	36388
0	127381	71098	36378
0	127392	71098	36368
0	127404	71098	36358
0	127415	71098	36348
0	127427	71098	36338
0	127438	71098	36328
0	127450	71098	36318
0	127461	71098	36308
0	127473	71098	36298
0	127484	71098	36288
0	127496	71098	36278
0	127507	71098	36268
0	127519	71098	36258
0	127530	71098	36248
0	127542	71098	36238
0	127553	71098	36228
0	127565	71098	36218
0	127576	71098	36208
0	127588	71098	36198
0	127599	71098	36188
0	127611	71098	36178
0	127622	71098	36168
0	127634	71098	36158
0	127645	71098	36148
0	127657	71098	36138
0	127668	71098	36128
0	127680	71098	36118
0	127691	71098	36108
0	127703	71098	36098
0	127714	71098	36088
0	127726	71098	36078
0	127737	71098	36068
0	127749	71098	36058
0	127760	71098	36048
0	127772	71098	36038
0	127783	71098	36028
0	127795	71098	36018
0	127806	71098	36008
0	127818	71098	35998
0	127829	71098	35988
0	127841	71098	35978
0	127852	71098	35968
0	127864	71098	35958
0	127875	71098	35948
0	127887	71098	35938
0	127898	71098	35928
0	127910	71098	35918
0	127921	71098	35908
0	127933	71098	35898
0	127944	71098	35888
0	127956	71098	35878
0	127967	71098	35868
0	127979	71098	35858
0	127990	71098	35848
0	128002	71098	35838
0	128013	71098	35828
0	128025	71098	35818
0	128036	71098	35808
0	128048	71098	35798
0	128059	71098	35788
0	128071	71098	35778
0	128082	71098	35768
0	128094	71098	35758
0	128105	71098	35748
0	128117	71098	35738
0	128128	71098	35728
0	128140	71098	35718
0	128151	71098	35708
0	128163	71098	35698
0	128174	71098	35688
0	128186	71098	35678
0	128197	71098	35668
0	128209	71098	35658
0	128220	71098	35648
0	128232	71098	35638
0	128243	71098	35628
0	128255	71098	35618
0	128266	71098	35608
0	128278	71098	35598
0	128289	71098	35588
0	128301	71098	35578
0	128312	71098	35568
0	128324	71098	35558
0	128335	71098	35548
0	128347	71098	35538
0	128358	71098	35528
0	128370	71098	35518
0	128381	71098	35508
0	128393	71098	35498
0	128404	71098	35488
0	128416	71098	35478
0	128427	71098	35468
0	128439	71098	35458
0	128450	71098	35448
0	128462	71098	35438
0	128473	71098	35428
0	128485	71098	35418
0	128496	71098	35408
0	128508	71098	35398
0	128519	71098	35388
0	128531	71098	35378
0	128542	71098	35368
0	128554	71098	35358
0	128565	71098	35348
0	128577	71098	35338
0	128588	71098	35328
0	128600	71098	35318
0	128611	71098	35308
0	128623	71098	35298
0	128634	71098	35288
0	128646	71098	35278
0	128657	71098	35268
0	128669	71098	35258
0	128680	71098	35248
0	128692	71098	35238
0	128703	71098	35228
0	128715	71098	35218
0	128726	71098	35208
0	128738	71098	35198
0	128749	71098	35188
0	128761	71098	35178
0	128772	71098	35168
0	128784	71098	35158
0	128795	71098	35148
0	128807	71098	35138
0	128818	71098	35128
0	128830	71098	35118
0	128841	71098	35108
0	128853	71098	35098
0	128864	71098	35088
0	128876	71098	35078
0	128887	71098	35068
0	128899	71098	35058
0	128910	71098	35048
0	128922	71098	35038
0	128933	71098	35028
0	128945	71098	35018
0	128956	71098	35008
0	128968	71098	34998
0	128979	71098	34988
0	128991	71098	34978
0	129002	71098	34968
0	129014	71098	34958
0	129025	71098	34948
0	129037	71098	34938
0	129048	71098	34928
0	129060	71098	34918
0	129071	71098	34908
0	129083	71098	34898
0	129094	71098	34888
0	129106	71098	34878
0	129117	71098	34868
0	129129	71098	34858
0	129140	71098	34848
0	129152	71098	34838
0	129163	71098	34828
0	129175	71098	34818
0	129186	71098	34808
0	129198	71098	34798
0	129209	71098	34788
0	129221	71098	34778
0	129232	71098	34768
0	129244	71098	34758
0	129255	71098	34748
0	129267	71098	34738
0	129278	71098	34728
0	129290	71098	34718
0	129301	71098	34708
0	129313	71098	34698
0	129324	71098	34688
0	129336	71098	34678
0	129347	71098	34668
0	129359	71098	34658
0	129370	71098	34648
0	129382	71098	34638
0	129393	71098	34628
0	129405	71098	34618
0	129416	71098	34608
0	129428	71098	34598
0	129439	71098	34588
0	129451	71098	34578
0	129462	71098	34568
0	129474	71098	34558
0	129485	71098	34548
0	129497	71098	34538
0	129508	71098	34528
0	129520	71098	34518
0	129531	71098	34508
0	129543	71098	34498
0	129554	71098	34488
0	129566	71098	34478
0	129577	71098	34468
0	129589	71098	34458
0	129600	71098	34448
0	129612	71098	34438
0	129623	71098	34428
0	129635	71098	34418
0	129646	71098	34408
0	129658	71098	34398
0	129669	71098	34388
0	129681	71098	34378
0	129692	71098	34368
0	129704	71098	34358
0	129715	71098	34348
0	129727	71098	34338
0	129738	71098	34328
0	129750	71098	34318
0	129761	71098	34308
0	129773	71098	34298
0	129784	71098	34288
0	129796	71098	34278
0	129807	71098	34268
0	129819	71098	34258
0	129830	71098	34248
0	129842	71098	34238
0	129853	71098	34228
0	129865	71098	34218
0	129876	71098	34208
0	129888	71098	34198
0	129899	71098	34188
0	129911	71098	34178
0	129922	71098	34168
0	129934	71098	34158
0	129945	71098	34148
0	129957	71098	34138
0	129968	71098	34128
0	129980	71098	34118
0	129991	71098	34108
0	130003	71098	34098
0	130014	71098	34088
0	130026	71098	34078
0	130037	71098	34068
0	130049	71098	34058
0	130060	71098	34048
0	130072	71098	34038
0	130083	71098	34028
0	130095	71098	34018
0	130106	71098	34008
0	130118	71098	33998
0	130129	71098	33988
0	130141	71098	33978
0	130152	71098	33968
0	130164	71098	33958
0	130175	71098	33948
0	130187	71098	33938
0	130198	71098	33928
0	130210	71098	33918
0	130221	71098	33908
0	130233	71098	33898
0	130244	71098	33888
0	130256	71098	33878
0	130267	71098	33868
0	130279	71098	33858
0	130290	71098	33848
0	130302	71098	33838
0	130313	71098	33828
0	130325	71098	33818
0	130336	71098	33808
0	130348	71098	33798
0	130359	71098	33788
0	130371	71098	33778
0	130382	71098	33768
0	130394	71098	33758
0	130405	71098	33748
0	130417	71098	33738
0	130428	71098	33728
0	130440	71098	33718
0	130451	71098	33708
0	130463	71098	33698
0	130474	71098	33688
0	130486	71098	33678
0	130497	71098	33668
0	130509	71098	33658
0	130520	71098	33648
[...]
0	167401	71098	1578
0	167412	71098	1568
0	167424	71098	1558
0	167435	71098	1548
0	167447	71098	1538
0	167458	71098	1528
0	167470	71098	1518
0	167481	71098	1508
0	167493	71098	1498
0	167504	71098	1488
0	167516	71098	1478
0	167527	71098	1468
0	167539	71098	1458
0	167550	71098	1448
0	167562	71098	1438
0	167573	71098	1428
0	167585	71098	1418
0	167596	71098	1408
0	167608	71098	1398
0	167619	71098	1388
0	167631	71098	1378
0	167642	71098	1368
0	167654	71098	1358
0	167665	71098	1348
0	167677	71098	1338
0	167688	71098	1328
0	167700	71098	1318
0	167711	71098	1308
0	167723	71098	1298
0	167734	71098	1288
0	167746	71098	1278
0	167757	71098	1268
0	167769	71098	1258
0	167780	71098	1248
0	167792	71098	1238
0	167803	71098	1228
0	167815	71098	1218
0	167826	71098	1208
0	167838	71098	1198
0	167849	71098	1188
0	167861	71098	1178
0	167872	71098	1168
0	167884	71098	1158
0	167895	71098	1148
0	167907	71098	1138
0	167918	71098	1128
0	167930	71098	1118
0	167941	71098	1108
0	167953	71098	1098
0	167964	71098	1088
0	167976	71098	1078
0	167987	71098	1068
0	167999	71098	1058
0	168010	71098	1048
0	168022	71098	1038
0	168033	71098	1028
0	168045	71098	1018
0	168056	71098	1008
0	168068	71098	998
0	168079	71098	988
0	168091	71098	978
0	168102	71098	968
0	168114	71098	958
0	168125	71098	948
0	168137	71098	938
0	168148	71098	928
0	168160	71098	918
0	168171	71098	908
0	168183	71098	898
0	168194	71098	888
0	168206	71098	878
0	168217	71098	868
0	168229	71098	858
0	168240	71098	848
0	168252	71098	838
0	168263	71098	828
0	168275	71098	818
0	168286	71098	808
0	168298	71098	798
0	168309	71098	788
0	168321	71098	778
0	168332	71098	768
0	168344	71098	758
0	168355	71098	748
0	168367	71098	738
0	168378	71098	728
0	168390	71098	718
0	168401	71098	708
0	168413	71098	698
0	168424	71098	688
0	168436	71098	678
0	168447	71098	668
0	168459	71098	658
0	168470	71098	648
0	168482	71098	638
0	168493	71098	628
0	168505	71098	618
0	168516	71098	608
0	168528	71098	598
0	168539	71098	588
0	168551	71098	578
0	168562	71098	568
0	168574	71098	558
0	168585	71098	548
0	168597	71098	538
0	168608	71098	528
0	168620	71098	518
0	168631	71098	508
0	168643	71098	498
0	168654	71098	488
0	168662	71098	478
0	168691	71108	478
0	168721	71118	478
0	168751	71128	478
0	168781	71138	478
0	168811	71148	478
0	168841	71158	478
0	168871	71168	478
0	168903	71178	478
0	168934	71188	478
0	168965	71198	478
0	168996	71208	478
0	169027	71218	478
0	169058	71228	478
0	169089	71238	478
0	169120	71248	478
0	169151	71258	478
0	169182	71268	478
0	169213	71278	478
0	169244	71288	478
0	169275	71298	478
0	169306	71308	478
0	169337	71318	478
0	169368	71328	478
0	169400	71338	478
0	169421	71348	478
0	169442	71358	478
0	169463	71368	478
0	169484	71378	478
0	169505	71388	478
0	169526	71398	478
0	169547	71408	478
0	169568	71418	478
0	169591	71428	478
0	169612	71438	478
0	169633	71448	478
0	169654	71458	478
0	169675	71468	478
0	169696	71478	478
0	169717	71488	478
0	169738	71498	478
0	169759	71508	478
0	169780	71518	478
0	169801	71528	478
0	169822	71538	478
0	169843	71548	478
0	169864	71558	478
0	169885	71568	478
0	169906	71578	478
0	169927	71588	478
0	169948	71598	478
0	169969	71608	478
0	169990	71618	478
0	170011	71628	478
0	170032	71638	478
0	170053	71648	478
0	170074	71658	478
0	170095	71668	478
0	170116	71678	478
0	170137	71688	478
0	170158	71698	478
0	170179	71708	478
0	170200	71718	478
0	170221	71728	478
0	170242	71738	478
0	170263	71748	478
0	170284	71758	478
0	170305	71768	478
0	170326	71778	478
0	170347	71788	478
0	170368	71798	478
0	170389	71808	478
0	171806	72531	1191
0	171813	72531	1181
0	171819	72531	1171
0	171825	72531	1161
0	171831	72531	1151
0	171837	72531	1141
0	171843	72531	1131
0	171849	72531	1121
0	171855	72531	1111
0	171861	72531	1101
0	171867	72531	1091
0	171873	72531	1081
0	171879	72531	1071
0	171885	72531	1061
0	171891	72531	1051
0	171897	72531	1041
0	171903	72531	1031
0	171909	72531	1021
0	171915	72531	1011
0	171921	72531	1001
0	171927	72531	991
0	171933	72531	981
0	171939	72531	971
0	171945	72531	961
0	171951	72531	951
0	171957	72531	941
0	171963	72531	931
0	171969	72531	921
0	171975	72531	911
0	171981	72531	901
0	171987	72531	891
0	171993	72531	881
0	171999	72531	871
0	172005	72531	861
0	172011	72531	851
0	172017	72531	841
0	172023	72531	831
0	172029	72531	821
0	172035	72531	811
0	172041	72531	801
0	172047	72531	791
0	172053	72531	781
0	172059	72531	771
0	172065	72531	761
0	172071	72531	751
0	172077	72531	741
0	172083	72531	731
0	172089	72531	721
0	172095	72531	711
0	172101	72531	701
0	172107	72531	691
0	172113	72531	681
0	172119	72531	671
0	172125	72531	661
0	172131	72531	651
0	172137	72531	641
0	172143	72531	631
0	172149	72531	621
0	172155	72531	611
0	172161	72531	601
0	172167	72531	591
0	172173	72531	581
0	172179	72531	571
0	172185	72531	561
0	172191	72531	551
0	172197	72531	541
0	172203	72531	531
0	172209	72531	521
0	172215	72531	511
0	172221	72531	501
0	172227	72531	491
0	172233	72531	481
0	172245	72538	478
0	172270	72548	478
0	172297	72558	478
0	172323	72568	478
0	172349	72578	478
0	172377	72588	478
0	172405	72598	478
0	172431	72608	478
0	172457	72618	478
0	172483	72628	478
0	172513	72638	478
0	172542	72648	478
0	172569	72658	478
0	172596	72668	478
0	172623	72678	478
0	172652	72688	478
0	172679	72698	478
0	173906	73188	958
0	173918	73188	948
0	173924	73188	938
0	173930	73188	928
0	173936	73188	918
0	173942	73188	908
0	173948	73188	898
0	173954	73188	888
0	173960	73188	878
0	173966	73188	868
0	173972	73188	858
0	173978	73188	848
0	173984	73188	838
0	173990	73188	828
0	173996	73188	818
0	174002	73188	808
0	174008	73188	798
0	174014	73188	788
0	174020	73188	778
0	174026	73188	768
0	174032	73188	758
0	174038	73188	748
0	174044	73188	738
0	174050	73188	728
0	174056	73188	718
0	174062	73188	708
0	174068	73188	698
0	174074	73188	688
0	174080	73188	678
0	174086	73188	668
0	174092	73188	658
0	174098	73188	648
0	174104	73188	638
0	174110	73188	628
0	174116	73188	618
0	174122	73188	608
0	174128	73188	598
0	174134	73188	588
0	174140	73188	578
0	174146	73188	568
0	174152	73188	558
0	174158	73188	548
0	174164	73188	538
0	174170	73188	528
0	174176	73188	518
0	174182	73188	508
0	174188	73188	498
0	174194	73188	488
0	174200	73188	478
0	174234	73198	478
0	174276	73208	478
0	174321	73218	478
0	174363	73228	478
0	174405	73238	478
0	174447	73248	478
0	174489	73258	478
0	174533	73268	478
0	174577	73278	478
0	174621	73288	478
0	174663	73298	478
0	174705	73308	478
0	174747	73318	478
0	174791	73328	478
0	174833	73338	478
0	174875	73348	478
0	174919	73358	478
0	174963	73368	478
0	175006	73378	478
0	175051	73388	478
0	175094	73398	478
0	175139	73408	478
0	175182	73418	478
0	175225	73428	478
0	175268	73438	478
0	175311	73448	478
0	175356	73458	478
0	175399	73468	478
0	175442	73478	478
0	175485	73488	478
0	175528	73498	478
0	175571	73508	478
0	175614	73518	478
0	175657	73528	478
0	175700	73538	478
0	175745	73548	478
0	175792	73558	478
0	175841	73568	478
0	175889	73578	478
0	175937	73588	478
0	175982	73598	478
0	176027	73608	478
0	176074	73618	478
0	176122	73628	478
0	176173	73638	478
0	176223	73648	478
0	176272	73658	478
0	176320	73668	478
0	176370	73678	478
0	176422	73688	478
0	176472	73698	478
0	176524	73708	478
0	176577	73718	478
0	176628	73728	478
0	176679	73738	478
0	176732	73748	478
0	176783	73758	478
0	176834	73768	478
0	176885	73778	478
0	176936	73788	478
0	176987	73798	478
0	177038	73808	478
0	177089	73818	478
0	177140	73828	478
0	177192	73838	478
0	177245	73848	478
0	177296	73858	478
0	177347	73868	478
0	177398	73878	478
0	177449	73888	478
0	177500	73898	478
0	177551	73908	478
0	177602	73918	478
0	177653	73928	478
0	177704	73938	478
0	177755	73948	478
0	177806	73958	478
0	177857	73968	478
0	177908	73978	478
0	177961	73988	478
0	178014	73998	478
0	178066	74008	478
0	178118	74018	478
0	178170	74028	478
0	178224	74038	478
0	178276	74048	478
0	178328	74058	478
0	178380	74068	478
0	178432	74078	478
0	178484	74088	478
0	178538	74098	478
0	178591	74108	478
0	178644	74118	478
0	178697	74128	478
0	178750	74138	478
0	178803	74148	478
0	178856	74158	478
0	178909	74168	478
0	178962	74178	478
0	179017	74188	478
0	179071	74198	478
0	179127	74208	478
0	179185	74218	478
0	179243	74228	478
0	179299	74238	478
0	179355	74248	478
0	179411	74258	478
0	179467	74268	478
0	179523	74278	478
0	179579	74288	478
0	179635	74298	478
0	179691	74308	478
0	179747	74318	478
0	179803	74328	478
0	179859	74338	478
0	179915	74348	478
0	179971	74358	478
0	180027	74368	478
0	180085	74378	478
0	180141	74388	478
0	180197	74398	478
0	180253	74408	478
0	180312	74418	478
0	180372	74428	478
0	180430	74438	478
0	180488	74448	478
0	180546	74458	478
0	180604	74468	478
0	180662	74478	478
0	180721	74488	478
0	180779	74498	478
0	180839	74508	478
0	180898	74518	478
0	180957	74528	478
0	181016	74538	478
0	181075	74548	478
0	181134	74558	478
0	181195	74568	478
0	181254	74578	478
0	181315	74588	478
0	181376	74598	478
0	181438	74608	478
0	181498	74618	478
0	181558	74628	478
0	181618	74638	478
0	181678	74648	478
0	181737	74658	478
0	181796	74668	478
0	181855	74678	478
0	181914	74688	478
0	181975	74698	478
0	182034	74708	478
0	182093	74718	478
0	182152	74728	478
0	182211	74738	478
0	182270	74748	478
0	182329	74758	478
0	182388	74768	478
0	182447	74778	478
0	182506	74788	478
0	182565	74798	478
0	182624	74808	478
0	182683	74818	478
0	182742	74828	478
0	182803	74838	478
0	182863	74848	478
0	182923	74858	478
0	182983	74868	478
0	183043	74878	478
0	183103	74888	478
0	183163	74898	478
0	183223	74908	478
0	183283	74918	478
0	183345	74928	478
0	183406	74938	478
0	183464	74948	478
0	183522	74958	478
0	183580	74968	478
0	183641	74978	478
0	183700	74988	478
0	183766	74998	478
0	183834	75008	478
0	183900	75018	478
0	183966	75028	478
0	184030	75038	478
0	184094	75048	478
0	184158	75058	478
0	184222	75068	478
0	184288	75078	478
0	184355	75088	478
0	184421	75098	478
0	184487	75108	478
0	184553	75118	478
0	184619	75128	478
0	184685	75138	478
0	184757	75148	478
0	184825	75158	478
0	184892	75168	478
0	184959	75178	478
0	185028	75188	478
0	185095	75198	478
0	185162	75208	478
0	185229	75218	478
0	185298	75228	478
0	185365	75238	478
0	185433	75248	478
0	185501	75258	478
0	185569	75268	478
0	185638	75278	478
0	185707	75288	478
0	185774	75298	478
0	185841	75308	478
0	185910	75318	478
0	185977	75328	478
0	186046	75338	478
0	186115	75348	478
0	186182	75358	478
0	186249	75368	478
0	186316	75378	478
0	186384	75388	478
0	186451	75398	478
0	186518	75408	478
0	186871	75477	477
0	186948	75487	477
0	187025	75497	477
0	187105	75507	477
0	187184	75517	477
0	187262	75527	477
0	187342	75537	477
0	187420	75547	477
0	187499	75557	477
0	187578	75567	477
0	187659	75577	477
0	187743	75587	477
0	187825	75597	477
0	187905	75607	477
0	187985	75617	477
0	188065	75627	477
0	188148	75637	477
0	188229	75647	477
0	188309	75657	477
0	188389	75667	477
0	188469	75677	477
0	188551	75687	477
0	188633	75697	477
0	188714	75707	477
0	188797	75717	477
0	188884	75727	477
0	188969	75737	477
0	189053	75747	477
0	189135	75757	477
0	189217	75767	477
0	189301	75777	477
0	189386	75787	477
0	189469	75797	477
0	189553	75807	477
0	189635	75817	477
0	189717	75827	477
0	189802	75837	477
0	189885	75847	477
0	189970	75857	477
0	190055	75867	477
0	190138	75877	477
0	190234	75887	947
0	190266	75887	937
0	190272	75887	927
0	190278	75887	917
0	190284	75887	907
0	190290	75887	897
0	190296	75887	477
0	190355	75897	477
0	190438	75907	477
0	190521	75917	477
0	190606	75927	477
0	190690	75937	477
0	190774	75947	477
0	190858	75957	477
0	190943	75967	477
0	191026	75977	477
0	191113	75987	477
0	191193	75997	477
0	191273	76007	477
0	191353	76017	477
0	191433	76027	477
0	191513	76037	477
0	191593	76047	477
0	191673	76057	477
0	191753	76067	477
0	191833	76077	477
0	191914	76087	477
0	191998	76097	477
0	192075	76107	477
0	192156	76117	477
0	192234	76127	477
0	192312	76137	477
0	192389	76147	477
0	192467	76157	477
0	192544	76167	477
0	192621	76177	477
0	192700	76187	477
0	192778	76197	477
0	192855	76207	477
0	192934	76217	477
0	193012	76227	477
0	193090	76237	477
0	193168	76247	477
0	193246	76257	477
0	193324	76267	477
0	193402	76277	477
0	193480	76287	477
0	193560	76297	477
0	193640	76307	477
0	193718	76317	477
0	193798	76327	477
0	193878	76337	477
0	193957	76347	477
0	194036	76357	477
0	194118	76367	477
0	194197	76377	477
0	194276	76387	477
0	194355	76397	477
0	194434	76407	477
0	194518	76417	477
0	194596	76427	477
0	194673	76437	477
0	194750	76447	477
0	194829	76457	477
0	197192	76937	947
0	197220	76937	937
0	197226	76937	927
0	197232	76937	917
0	197238	76937	907
0	197244	76937	897
0	197250	76937	887
0	197256	76937	877
0	197262	76937	867
0	197268	76937	857
0	197274	76937	847
0	197280	76937	837
0	197286	76937	827
0	197292	76937	817
0	197298	76937	807
0	197304	76937	797
0	197310	76937	787
0	197316	76937	777
0	197322	76937	767
0	197328	76937	757
0	197334	76937	747
0	197340	76937	737
0	197346	76937	727
0	197352	76937	717
0	197358	76937	707
0	197364	76937	697
0	197370	76937	687
0	197376	76937	677
0	197382	76937	667
0	197388	76937	657
0	197394	76937	647
0	197400	76937	637
0	197406	76937	627
0	197412	76937	617
0	197418	76937	607
0	197424	76937	597
0	197430	76937	587
0	197436	76937	577
0	197442	76937	567
0	197448	76937	557
0	197454	76937	547
0	197460	76937	537
0	197466	76937	527
0	197472	76937	517
0	197478	76937	507
0	197484	76937	497
0	197490	76937	487
0	197496	76937	477
0	197549	76947	477
0	197624	76957	477
0	197697	76967	477
0	197770	76977	477
0	197843	76987	477
0	197919	76997	477
0	197994	77007	477
0	198067	77017	477
0	198140	77027	477
0	198213	77037	477
0	198286	77047	477
0	198360	77057	477
0	198433	77067	477
0	198505	77077	477
0	198579	77087	477
0	198651	77097	477
0	198723	77107	477
0	198792	77117	477
0	198859	77127	477
0	198928	77137	477
0	198995	77147	477
0	199064	77157	477
0	199131	77167	477
0	199199	77177	477
0	199266	77187	477
0	199331	77197	477
0	199396	77207	477
0	199463	77217	477
0	199531	77227	477
0	199601	77237	477
0	199668	77247	477
0	199733	77257	477
0	199797	77267	477
0	199863	77277	477
0	199926	77287	477
0	199989	77297	477
0	200052	77307	477
0	200115	77317	477
0	200177	77327	477
0	200239	77337	477
0	200300	77347	477
0	200361	77357	477
0	200422	77367	477
0	200483	77377	477
0	200544	77387	477
0	200605	77397	477
0	200666	77407	477
0	200728	77417	477
0	200788	77427	477
0	200849	77437	477
0	200907	77447	477
0	200966	77457	477
0	201024	77467	477
0	201083	77477	477
0	201140	77487	477
0	201197	77497	477
0	201256	77507	477
0	201314	77517	477
0	201373	77527	477
0	201430	77537	477
0	201487	77547	477
0	201546	77557	477
0	201604	77567	477
0	203578	78057	957
0	203600	78057	947
0	203606	78057	937
0	203612	78057	927
0	203618	78057	917
0	203624	78057	907
0	203630	78057	897
0	203636	78057	887
0	203642	78057	877
0	203648	78057	867
0	203654	78057	857
0	203660	78057	847
0	203666	78057	837
0	203672	78057	827
0	203678	78057	817
0	203684	78057	807
0	203690	78057	797
0	203696	78057	787
0	203702	78057	777
0	203708	78057	767
0	203714	78057	757
0	203720	78057	747
0	203726	78057	737
0	203732	78057	727
0	203738	78057	717
0	203744	78057	707
0	203750	78057	697
0	203756	78057	687
0	203762	78057	677
0	203768	78057	667
0	203774	78057	657
0	203780	78057	647
0	203786	78057	637
0	203792	78057	627
0	203798	78057	617
0	203804	78057	607
0	203810	78057	597
0	203816	78057	587
0	203822	78057	577
0	203828	78057	567
0	203834	78057	557
0	203840	78057	547
0	203846	78057	537
0	203852	78057	527
0	203858	78057	517
0	203864	78057	507
0	203870	78057	497
0	203876	78057	487
0	203882	78057	477
0	203930	78067	477
0	203994	78077	477
0	204060	78087	477
0	204125	78097	477
0	204193	78107	477
0	204258	78117	477
0	204325	78127	477
0	204391	78137	477
0	204455	78147	477
0	204519	78157	477
0	204583	78167	477
0	204647	78177	477
0	204711	78187	477
0	204775	78197	477
0	204839	78207	477
0	204903	78217	477
0	204967	78227	477
0	205031	78237	477
0	205095	78247	477
0	205159	78257	477
0	205223	78267	477
0	205289	78277	477
0	205354	78287	477
0	205419	78297	477
0	205484	78307	477
0	205549	78317	477
0	205616	78327	477
0	205680	78337	477
0	205744	78347	477
0	205810	78357	477
0	205872	78367	477
0	205936	78377	477
0	205999	78387	477
0	206060	78397	477
0	206121	78407	477
0	206182	78417	477
0	206240	78427	477
0	206298	78437	477
0	206356	78447	477
0	206414	78457	477
0	206471	78467	477
0	206528	78477	477
0	206585	78487	477
0	206642	78497	477
0	206699	78507	477
0	206757	78517	477
0	206814	78527	477
0	206872	78537	477
0	206929	78547	477
0	206986	78557	477
0	207043	78567	477
0	207102	78577	477
0	207161	78587	477
0	207218	78597	477
0	207275	78607	477
0	207333	78617	477
0	207389	78627	477
0	207445	78637	477
0	207501	78647	477
0	207557	78657	477
0	207613	78667	477
0	207668	78677	477
0	207725	78687	477
0	207780	78697	477
0	207835	78707	477
0	207890	78717	477
0	207945	78727	477
0	208000	78737	477
0	208055	78747	477
0	208110	78757	477
0	208165	78767	477
0	208220	78777	477
0	208275	78787	477
0	208330	78797	477
0	208385	78807	477
0	208442	78817	477
0	208498	78827	477
0	208556	78837	477
0	208612	78847	477
0	208668	78857	477
0	208724	78867	477
0	208780	78877	477
0	208839	78887	477
0	210580	79377	957
0	210598	79377	947
0	210604	79377	937
0	210610	79377	927
0	210616	79377	917
0	210622	79377	907
0	210628	79377	897
0	210634	79377	887
0	210640	79377	877
0	210646	79377	867
0	210652	79377	857
0	210658	79377	847
0	210664	79377	837
0	210670	79377	827
0	210676	79377	817
0	210682	79377	807
0	210688	79377	797
0	210694	79377	787
0	210700	79377	777
0	210706	79377	767
0	210712	79377	757
0	210718	79377	747
0	210724	79377	737
0	210730	79377	727
0	210736	79377	717
0	210742	79377	707
0	210748	79377	697
0	210754	79377	687
0	210760	79377	677
0	210766	79377	667
0	210772	79377	657
0	210778	79377	647
0	210784	79377	637
0	210790	79377	627
0	210796	79377	617
0	210802	79377	607
0	210808	79377	597
0	210814	79377	587
0	210820	79377	577
0	210826	79377	567
0	210832	79377	557
0	210838	79377	547
0	210844	79377	537
0	210850	79377	527
0	210856	79377	517
0	210862	79377	507
0	210868	79377	497
0	210874	79377	487
0	210880	79377	477
0	210920	79387	477
0	210972	79397	477
0	211024	79407	477
0	211076	79417	477
0	211128	79427	477
0	211180	79437	477
0	211232	79447	477
0	211284	79457	477
0	211336	79467	477
0	211388	79477	477
0	211440	79487	477
0	211492	79497	477
0	211545	79507	477
0	211597	79517	477
0	211649	79527	477
0	211701	79537	477
0	211754	79547	477
0	211806	79557	477
0	211859	79567	477
0	211913	79577	477
0	211965	79587	477
0	212017	79597	477
0	212069	79607	477
0	212124	79617	477
0	212177	79627	477
0	212230	79637	477
0	212286	79647	477
0	212340	79657	477
0	212395	79667	477
0	212449	79677	477
0	212502	79687	477
0	212555	79697	477
0	212609	79707	477
0	212662	79717	477
0	212716	79727	477
0	212768	79737	477
0	212821	79747	477
0	212873	79757	477
0	212927	79767	477
0	212979	79777	477
0	213032	79787	477
0	213084	79797	477
0	213137	79807	477
0	213189	79817	477
0	213242	79827	477
0	213293	79837	477
0	213344	79847	477
0	213398	79857	477
0	213450	79867	477
0	213505	79877	477
0	213558	79887	477
0	213611	79897	477
0	213664	79907	477
0	213717	79917	477
0	213770	79927	477
0	213823	79937	477
0	213876	79947	477
0	213929	79957	477
0	213986	79967	477
0	214039	79977	477
0	214091	79987	477
0	214143	79997	477
0	214165	80007	477
0	214187	80017	477
0	214209	80027	477
0	214232	80037	477
0	214254	80047	477
0	214275	80057	477
0	214296	80067	477
0	214317	80077	477
0	214337	80087	477
0	214358	80097	477
0	214381	80107	477
0	214402	80117	477
0	214423	80127	477
0	214443	80137	477
0	214463	80147	477
0	214484	80157	477
0	214503	80167	477
0	214522	80177	477
0	214544	80187	477
0	214564	80197	477
0	214583	80207	477
0	214603	80217	477
0	214622	80227	477
0	214641	80237	477
0	214660	80247	477
0	214679	80257	477
0	214700	80267	477
0	214719	80277	477
0	214739	80287	477
0	214760	80297	477
0	214779	80307	477
0	214798	80317	477
0	214818	80327	477
0	214837	80337	477
0	214856	80347	477
0	214875	80357	477
0	214895	80367	477
0	214915	80377	477
0	214934	80387	477
0	214953	80397	477
0	214972	80407	477
0	214990	80417	477
0	215008	80427	477
0	215026	80437	477
0	215044	80447	477
0	215062	80457	477
0	215080	80467	477

