version 2
run General-0-20250117-12:35:41-194168
attr configname General
attr datetime 20250117-12:35:41
attr experiment General
attr inifile shaw_false.ini
attr iterationvars ""
attr iterationvarsf ""
attr measurement ""
attr network src.dtnsim
attr processid 194168
attr repetition 0
attr replication #0
attr resultdir results
attr runnumber 0
attr seedset 0
param dtnsim.central.contactsFile "\"contactPlan/Contacts.txt\""
param dtnsim.central.contactsFile_A "\"contactPlan/Contacts.txt\""
param dtnsim.central.contactsFile_B "\"contactPlan/Contacts.txt\""
param dtnsim.central.contactIdsToDelete_from_celestialA "\"2 3 7 10 11 13 20 26 29 36 40 42 48 53 56 58 59 64 65 67 71 78 80 81 84 92 94 96 109 118 119 122 134 136 141 146 151 176 178 180 190 194 196 199 201 217 239 245 247 248 252 254 255 259 261 265 267 276 277 278 279 282 283 284 286 287 291 298 301 314 334 336 338 344 346 348 352 354 362 367 372 374 380 385 391 400 405 416 417 418 419 422 428 431 441 444 449 453 458 465 474\""
param dtnsim.central.contactIdsToDelete_from_celestialB "\"4 6 14 17 24 25 33 34 45 49 50 51 52 60 66 69 72 83 90 91 101 113 117 120 121 123 124 127 129 131 139 144 157 166 168 169 174 175 177 186 187 191 205 206 220 225 229 232 234 236 240 242 244 246 249 251 262 264 270 271 272 280 293 294 296 305 307 308 310 316 320 322 328 329 339 342 347 350 356 359 363 370 376 384 386 390 393 403 406 423 432 440 447 448 452 455 457 462 467\""
param dtnsim.central.celestialA_nodes "\"1 2 3\""
param dtnsim.central.celestialB_nodes "\"4 5 6\""
param dtnsim.central.locallyfaultsAware false
param dtnsim.central.mode_two_celestial true
param dtnsim.nodesNumber 6
param dtnsim.node[1].icon "\"receiverdish\""
param dtnsim.node[2..5].icon "\"satellite\""
param dtnsim.node[6].icon "\"receiverdish\""
param dtnsim.node[*].dtn.routing "\"cgrModel350\""
param dtnsim.node[*].dtn.routingType "\"routeListType:allPaths-firstEnding,volumeAware:allContacts,extensionBlock:on,contactPlan:global\""
param dtnsim.node[1].app.enable true
param dtnsim.node[1].app.bundlesNumber "\"8000\""
param dtnsim.node[1].app.start "\"0\""
param dtnsim.node[1].app.destinationEid "\"6\""
param dtnsim.node[1].app.size "\"1500\""
param dtnsim.node[1].app.interval 10

vector 0 dtnsim.node[6].app appBundleReceivedDelayvec:vector ETV
attr interpolationmode none
attr source appBundleReceivedDelay
attr title "appBundleReceivedDelayvec, vector"
0	15539	72319	859
0	15547	72319	849
0	15553	72319	839
0	15559	72319	829
0	15565	72319	819
0	15571	72319	809
0	15577	72319	799
0	15583	72319	789
0	15589	72319	779
0	15595	72319	769
0	15601	72319	759
0	15607	72319	749
0	15613	72319	739
0	15619	72319	729
0	15625	72319	719
0	15631	72319	709
0	15637	72319	699
0	15643	72319	689
0	15649	72319	679
0	15655	72319	669
0	15661	72319	659
0	15667	72319	649
0	15673	72319	639
0	15679	72319	629
0	15685	72319	619
0	15691	72319	609
0	15697	72319	599
0	15703	72319	589
0	15709	72319	579
0	15715	72319	569
0	15721	72319	559
0	15727	72319	549
0	15733	72319	539
0	15739	72319	529
0	15745	72319	519
0	15751	72319	509
0	15757	72319	499
0	15763	72319	489
0	15769	72319	479
0	15795	72328	478
0	15823	72338	478
0	15851	72348	478
0	15879	72358	478
0	15909	72368	478
0	15938	72378	478
0	15969	72388	478
0	16001	72398	478
0	16031	72408	478
0	16061	72418	478
0	16091	72428	478
0	16125	72438	478
0	16155	72448	478
0	16185	72458	478
0	16215	72468	478
0	16246	72478	478
0	16276	72488	478
0	16306	72498	478
0	16336	72508	478
0	16366	72518	478
0	16396	72528	478
0	16426	72538	478
0	16456	72548	478
0	16486	72558	478
0	16518	72568	478
0	16548	72578	478
0	16578	72588	478
0	16608	72598	478
0	16638	72608	478
0	16668	72618	478
0	16698	72628	478
0	16728	72638	478
0	16760	72648	478
0	16791	72658	478
0	16822	72668	478
0	16855	72678	478
0	16886	72688	478
0	16918	72698	478
0	16950	72708	478
0	16984	72718	478
0	17017	72728	478
0	17050	72738	478
0	17083	72748	478
0	17118	72758	478
0	34605	76068	478
0	34686	76078	478
0	34766	76088	478
0	34846	76098	478
0	34926	76108	478
0	35006	76118	478
0	35086	76128	478
0	35169	76138	478
0	35251	76148	478
0	35332	76158	478
0	35416	76168	478
0	35499	76178	478
0	35582	76188	478
0	35663	76198	478
0	35746	76208	478
0	35827	76218	478
0	35908	76228	478
0	35993	76238	478
0	36077	76248	478
0	36159	76258	478
0	36241	76268	478
0	36326	76278	478
0	36368	76288	478
0	36410	76298	478
0	36453	76308	478
0	36496	76318	478
0	36537	76328	478
0	36578	76338	478
0	36619	76348	478
0	36660	76358	478
0	36702	76368	478
0	36743	76378	478
0	36784	76388	478
0	36825	76398	478
0	36867	76408	478
0	36907	76418	478
0	36950	76428	478
0	36991	76438	478
0	37034	76448	478
0	37073	76458	478
0	37112	76468	478
0	37154	76478	478
0	37195	76488	478

