version 2
run General-0-20250114-20:00:16-98504
attr configname General
attr datetime 20250114-20:00:16
attr experiment General
attr inifile shaw.ini
attr iterationvars ""
attr iterationvarsf ""
attr measurement ""
attr network src.dtnsim
attr processid 98504
attr repetition 0
attr replication #0
attr resultdir results
attr runnumber 0
attr seedset 0
param dtnsim.central.contactsFile "\"contactPlan/Contacts.txt\""
param dtnsim.central.contactsFile_A "\"contactPlan/Contacts.txt\""
param dtnsim.central.contactsFile_B "\"contactPlan/Contacts.txt\""
param dtnsim.central.contactIdsToDelete_from_celestialA "\"12 25 26 40 55 58 59 67 116 129 131 135 168 179 189 220 242 281 283 288 329 338 343 372 385 394 400 416 427 446 461 468 481 516 518 521 542 553 554 555\""
param dtnsim.central.contactIdsToDelete_from_celestialB "\"19 28 33 46 69 79 88 99 107 111 124 140 142 147 150 157 169 171 180 181 190 233 240 246 253 287 299 300 314 318 320 327 328 336 356 358 360 368 376 407 434 435 452 459 460 463 465 484 492 501 544 547 549 563 569 580 585 592 593 597\""
param dtnsim.central.celestialA_nodes "\"1 2 3\""
param dtnsim.central.celestialB_nodes "\"4 5 6\""
param dtnsim.central.locallyfaultsAware true
param dtnsim.central.mode_two_celestial true
param dtnsim.nodesNumber 6
param dtnsim.node[1].icon "\"receiverdish\""
param dtnsim.node[2..5].icon "\"satellite\""
param dtnsim.node[6].icon "\"receiverdish\""
param dtnsim.node[*].dtn.routing "\"cgrModel350\""
param dtnsim.node[*].dtn.routingType "\"routeListType:allPaths-firstEnding,volumeAware:allContacts,extensionBlock:on,contactPlan:global\""
param dtnsim.node[1].app.enable true
param dtnsim.node[*].app.custodyTransfer true
param dtnsim.node[1].app.bundlesNumber "\"1800\""
param dtnsim.node[1].app.start "\"0\""
param dtnsim.node[1].app.destinationEid "\"6\""
param dtnsim.node[1].app.size "\"1500\""
param dtnsim.node[1].app.interval 1

vector 0 dtnsim.node[6].app appBundleReceivedDelayvec:vector ETV
attr interpolationmode none
attr source appBundleReceivedDelay
attr title "appBundleReceivedDelayvec, vector"
0	576	27.4	27.4
0	577	27.4	26.4
0	578	27.4	25.4
0	579	27.4	24.4
0	580	27.4	23.4
0	581	27.4	22.4
0	582	27.4	21.4
0	583	27.4	20.4
0	584	27.4	19.4
0	585	27.4	18.4
0	586	27.4	17.4
0	587	27.4	16.4
0	588	27.4	15.4
0	589	27.4	14.4
0	590	27.4	13.4
0	591	27.4	12.4
0	592	27.4	11.4
0	593	27.4	10.4
0	594	27.4	9.4
0	595	27.4	8.4
0	596	27.4	7.4
0	597	27.4	6.4
0	598	27.4	5.4
0	599	27.4	4.4
0	600	27.4	3.4
0	601	27.4	2.4
0	743	27.5	1.5
0	775	28.5	1.5
0	861	29.5	1.5
0	895	30.5	1.5
0	929	31.5	1.5
0	963	32.5	1.5
0	997	33.5	1.5
0	1031	34.5	1.5
0	1065	35.5	1.5
0	1102	36.5	1.5
0	1137	37.5	1.5
0	1172	38.5	1.5
0	1207	39.5	1.5
0	1242	40.5	1.5
0	1281	41.5	1.5
0	1316	42.5	1.5
0	1351	43.5	1.5
0	1853	44.5	1.5
0	1906	45.5	1.5
0	1959	46.5	1.5
0	2012	47.5	1.5
0	2065	48.5	1.5
0	2118	49.5	1.5
0	2171	50.5	1.5
0	2224	51.5	1.5
0	2277	52.5	1.5
0	2330	53.5	1.5
0	2386	54.5	1.5
0	2440	55.5	1.5
0	2494	56.5	1.5
0	2548	57.5	1.5
0	2602	58.5	1.5
0	2656	59.5	1.5
0	2710	60.5	1.5
0	2764	61.5	1.5
0	2817	62.5	1.5
0	2873	63.5	1.5
0	2927	64.5	1.5
0	2984	65.5	1.5
0	3039	66.5	1.5
0	3094	67.5	1.5
0	3149	68.5	1.5
0	3204	69.5	1.5
0	3259	70.5	1.5
0	3314	71.5	1.5
0	3369	72.5	1.5
0	3427	73.5	1.5
0	3485	74.5	1.5
0	3542	75.5	1.5
0	3599	76.5	1.5
0	3656	77.5	1.5
0	3713	78.5	1.5
0	3759	79.5	1.5
0	3814	80.2	1.2
0	3854	81.2	1.2
0	3904	82.2	1.2
0	3952	83.2	1.2
0	4001	84.2	1.2
0	4048	85.2	1.2
0	4095	86.2	1.2
0	4141	87.2	1.2
0	4187	88.2	1.2
0	4233	89.2	1.2
0	4278	90.2	1.2
0	4324	91.2	1.2
0	4366	92.2	1.2
0	4451	94.2	2.2
0	4452	94.2	1.2
0	4485	95.2	1.2
0	4534	96.2	1.2
0	4576	97.2	1.2
0	4618	98.2	1.2
0	4660	99.2	1.2
0	4702	100.2	1.2
0	4744	101.2	1.2
0	4786	102.2	1.2
0	4828	103.2	1.2
0	4870	104.2	1.2
0	4915	105.2	1.2
0	4956	106.2	1.2
0	4995	107.2	1.2
0	5030	108.2	1.2
0	5065	109.2	1.2
0	5100	110.2	1.2
0	5136	111.2	1.2
0	5172	112.2	1.2
0	5471	113.2	1.2
0	6552	115.6	2.6
0	6553	115.6	1.6
0	6608	116.6	1.6
0	6671	117.6	1.6
0	6728	118.6	1.6
0	6979	119.6	1.6
0	7032	120.6	1.6
0	7083	121.6	1.6
0	7134	122.6	1.6
0	7230	123.6	1.6
0	7312	125.4	1.4
0	7416	126.4	1.4
0	7467	126.9	3.9
0	7542	127.4	1.4
0	7630	128.4	1.4
0	7699	129.4	1.4
0	7768	130.4	1.4
0	7836	131.4	1.4
0	7904	132.4	1.4
0	7972	133.4	1.4
0	8042	134.4	1.4
0	8110	135.4	1.4
0	8178	136.4	1.4
0	8246	137.4	1.4
0	8314	138.4	1.4
0	8385	139.4	1.4
0	8454	140.4	1.4
0	8523	141.4	1.4
0	8592	142.4	1.4
0	8664	143.4	1.4
0	8746	144.4	1.4
0	8824	145.4	1.4
0	8964	147.5	2.5
0	8965	147.5	1.5
0	9047	148.5	1.5
0	9116	149.5	1.5
0	9186	150.5	1.5
0	9262	151.5	1.5
0	9321	152.5	1.5
0	9394	153.5	1.5
0	9450	154.5	1.5
0	9559	156.5	2.5
0	9560	156.5	1.5
0	9637	157.5	1.5
0	9700	158.5	1.5
0	9763	159.5	1.5
0	9830	160.5	1.5
0	9898	161.5	1.5
0	9971	162.5	1.5
0	10035	163.5	1.5
0	10106	164.5	1.5
0	10183	165.5	1.5
0	10246	166.5	1.5
0	10305	167.5	1.5
0	10351	168.5	1.5
0	10395	169.5	1.5
0	10444	170.5	1.5
0	10490	171.5	1.5
0	10539	172.5	1.5
0	10586	173.5	1.5
0	10636	174.5	1.5
0	10684	175.5	1.5
0	10732	176.5	1.5
0	10779	177.5	1.5
0	10826	178.5	1.5
0	10873	179.5	1.5
0	10971	180.5	1.5
0	11168	181.5	1.5
0	11302	182.5	1.5
0	11971	184.5	2.5
0	11972	184.5	1.5
0	12154	185.5	1.5
0	12397	186.5	1.5
0	12596	187.5	1.5
0	12807	188.5	1.5
0	12990	189.5	1.5
0	13197	190.5	1.5
0	14752	203.1	12.1
0	14753	203.1	11.1
0	14754	203.1	13.1
0	14755	203.1	10.1
0	14756	203.1	9.1
0	14757	203.1	8.1
0	14758	203.1	7.1
0	14759	203.1	6.1
0	14760	203.1	5.1
0	14761	203.1	4.1
0	14762	203.1	3.1
0	14763	203.1	2.1
0	14891	203.4	1.4
0	14948	204.4	1.4
0	15082	205.4	1.4
0	15175	206.4	1.4
0	15246	207.4	1.4
0	15316	208.4	1.4
0	15386	209.4	1.4
0	15456	210.4	1.4
0	15528	211.4	1.4
0	15601	212.4	1.4
0	15670	213.4	1.4
0	15742	214.4	1.4
0	15821	215.4	1.4
0	15896	216.4	1.4
0	15971	217.4	1.4
0	16046	218.4	1.4
0	16119	219.4	1.4
0	16193	220.4	1.4
0	16267	221.4	1.4
0	16344	222.4	1.4
0	16418	223.4	1.4
0	16479	224.4	1.4
0	16545	225.4	1.4
0	16621	226.4	1.4
0	16697	227.4	1.4
0	16771	228.4	1.4
0	16844	229.4	1.4
0	16917	230.4	1.4
0	16990	231.4	1.4
0	17063	232.4	1.4
0	17127	233.4	1.4
0	17191	234.4	1.4
0	17230	235.4	1.4
0	17639	247.5	12.5
0	17640	247.5	11.5
0	17641	247.5	10.5
0	17642	247.5	9.5
0	17643	247.5	8.5
0	17644	247.5	7.5
0	17645	247.5	6.5
0	17646	247.5	5.5
0	17647	247.5	4.5
0	17648	247.5	3.5
0	17649	247.5	2.5
0	17650	247.5	1.5
0	17840	248.5	1.5
0	17898	249.5	1.5
0	17956	250.5	1.5
0	18014	251.5	1.5
0	18072	252.5	1.5
0	18130	253.5	1.5
0	18186	254.5	1.5
0	18243	255.5	1.5
0	18303	256.5	1.5
0	18364	257.5	1.5
0	18421	258.5	1.5
0	18478	259.5	1.5
0	18535	260.5	1.5
0	18595	261.5	1.5
0	18656	262.5	1.5
0	18715	263.5	1.5
0	18778	264.5	1.5
0	18838	265.5	1.5
0	18898	266.5	1.5
0	18958	267.5	1.5
0	19018	268.5	1.5
0	19081	269.5	1.5
0	19142	270.5	1.5
0	19202	271.5	1.5
0	19265	272.5	1.5
0	19331	273.5	1.5
0	19394	274.5	1.5
0	19457	275.5	1.5
0	19520	276.5	1.5
0	19583	277.5	1.5
0	19663	278.5	1.5
0	19726	279.3	1.3
0	19806	280.3	1.3
0	19872	281.3	1.3
0	19937	282.3	1.3
0	20003	283.3	1.3
0	20069	284.3	1.3
0	20137	285.3	1.3
0	20201	286.3	1.3
0	20265	287.3	1.3
0	20329	288.3	1.3
0	20396	289.3	1.3
0	20464	290.3	1.3
0	20530	291.3	1.3
0	20592	292.3	1.3
0	20660	293.3	1.3
0	20725	294.3	1.3
0	20788	295.3	1.3
0	20851	296.3	1.3
0	20918	297.3	1.3
0	20981	298.3	1.3
0	21041	299.3	1.3
0	21267	330.1	31.1
0	23880	362.3	62.3
0	23881	362.3	61.3
0	23882	362.3	60.3
0	23883	362.3	59.3
0	23884	362.3	58.3
0	23885	362.3	57.3
0	23886	362.3	56.3
0	23887	362.3	55.3
0	23888	362.3	54.3
0	23889	362.3	53.3
0	23890	362.3	52.3
0	23891	362.3	51.3
0	23892	362.3	50.3
0	23893	362.3	49.3
0	23894	362.3	48.3
0	23895	362.3	47.3
0	23896	362.3	46.3
0	23897	362.3	45.3
0	23898	362.3	44.3
0	23899	362.3	43.3
0	23900	362.3	42.3
0	23901	362.3	41.3
0	23902	362.3	40.3
0	23903	362.3	39.3
0	23904	362.3	38.3
0	23905	362.3	37.3
0	23906	362.3	36.3
0	23907	362.3	35.3
0	23908	362.3	34.3
0	23909	362.3	33.3
0	23910	362.3	32.3
0	23911	362.3	31.3
0	23912	362.3	30.3
0	23913	362.3	29.3
0	23914	362.3	28.3
0	23915	362.3	27.3
0	23916	362.3	26.3
0	23917	362.3	25.3
0	23918	362.3	24.3
0	23919	362.3	23.3
0	23920	362.3	22.3
0	23921	362.3	21.3
0	23922	362.3	20.3
0	23923	362.3	19.3
0	23924	362.3	18.3
0	23925	362.3	17.3
0	23926	362.3	16.3
0	23927	362.3	15.3
0	23928	362.3	14.3
0	23929	362.3	13.3
0	23930	362.3	12.3
0	23931	362.3	11.3
0	23932	362.3	10.3
0	23933	362.3	9.3
0	23934	362.3	8.3
0	23935	362.3	7.3
0	23936	362.3	6.3
0	23937	362.3	5.3
0	23938	362.3	4.3
0	23939	362.3	3.3
0	23940	362.3	2.3
0	23941	362.3	1.3
0	24432	363.3	1.3
0	24498	364.3	1.3
0	24566	365.3	1.3
0	24632	366.3	1.3
0	24698	367.3	1.3
0	24764	368.3	1.3
0	24830	369.3	1.3
0	24896	370.3	1.3
0	24962	371.3	1.3
0	25032	372.3	1.3
0	25099	373.3	1.3
0	25166	374.3	1.3
0	25233	375.3	1.3
0	25299	376.3	1.3
0	25365	377.3	1.3
0	25434	378.3	1.3
0	25504	379.3	1.3
0	25563	380.3	1.3
0	25611	381.2	1.2
0	25656	382.2	1.2
0	25743	384.2	2.2
0	25744	384.2	1.2
0	25798	385.2	1.2
0	25845	386.2	1.2
0	26100	391.2	5.2
0	26101	391.2	4.2
0	26102	391.2	3.2
0	26103	391.2	2.2
0	26140	391.3	1.3
0	26235	392.3	1.3
0	26306	393.3	1.3
0	26379	394.3	1.3
0	26452	395.3	1.3
0	26528	396.3	1.3
0	26600	397.3	1.3
0	26672	398.3	1.3
0	26743	399.3	1.3
0	26811	400.3	1.3
0	26882	401.3	1.3
0	26954	402.3	1.3
0	27025	403.3	1.3
0	27096	404.3	1.3
0	27167	405.3	1.3
0	27238	406.3	1.3
0	27309	407.3	1.3
0	27380	408.3	1.3
0	27451	409.3	1.3
0	27519	410.3	1.3
0	27577	411.2	1.2
0	27634	412.2	1.2
0	27692	413.2	1.2
0	27751	414.2	1.2
0	27808	415.2	1.2
0	27865	416.2	1.2
0	27920	417.2	1.2
0	27979	418.2	1.2
0	28038	419.2	1.2
0	28101	420.2	1.2
0	28222	422.4	2.4
0	28223	422.4	1.4
0	28288	423.4	1.4
0	28365	424.4	1.4
0	28453	425.5	1.5
0	28506	426.5	1.5
0	28555	427.5	1.5
0	28598	428.5	1.5
0	28645	429.5	1.5
0	28689	430.5	1.5
0	28732	431.5	1.5
0	28772	432.5	1.5
0	28832	433.5	1.5
0	28905	434.5	1.5
0	28985	435.5	1.5
0	29065	436.5	1.5
0	29145	437.5	1.5
0	29228	438.5	1.5
0	29313	439.5	1.5
0	29396	440.5	1.5
0	29485	441.5	1.5
0	29551	442.2	1.2
0	29619	443.2	1.2
0	29697	444.2	1.2
0	29775	445.2	1.2
0	29853	446.2	1.2
0	29934	447.2	1.2
0	30024	448.2	1.2
0	30096	449.2	1.2
0	30157	450.2	1.2
0	30219	451.2	1.2
0	30280	452.2	1.2
0	30406	454.4	1.4
0	30495	455.4	1.4
0	30522	455.8	3.8
0	30575	456.4	1.4
0	30632	457.4	1.4
0	30687	458.4	1.4
0	30742	459.4	1.4
0	30797	460.4	1.4
0	31034	461.4	1.4
0	31174	463.4	1.4
0	31221	464.4	1.4
0	31295	465.4	1.4
0	31325	465.9	4.9
0	31376	466.4	1.4
0	31443	467.4	1.4
0	31503	468.4	1.4
0	31558	469.4	1.4
0	31619	470.4	1.4
0	31671	471.4	1.4
0	31737	472.4	1.4
0	31801	473.4	1.4
0	31862	474.4	1.4
0	31922	475.4	1.4
0	31982	476.4	1.4
0	32042	477.4	1.4
0	32102	478.4	1.4
0	32162	479.4	1.4
0	32221	480.4	1.4
0	32280	481.4	1.4
0	32338	482.4	1.4
0	32397	483.4	1.4
0	32460	484.4	1.4
0	32520	485.4	1.4
0	32580	486.4	1.4
0	32641	487.4	1.4
0	32703	488.4	1.4
0	32763	489.4	1.4
0	32823	490.4	1.4
0	32890	491.4	1.4
0	32949	492.4	1.4
0	33008	493.4	1.4
0	33076	494.4	1.4
0	33148	495.4	1.4
0	33205	496.4	1.4
0	33262	497.4	1.4
0	33319	498.4	1.4
0	33541	503.1	4.1
0	33542	503.1	3.1
0	33543	503.1	5.1
0	33544	503.1	2.1
0	33597	503.2	1.2
0	33648	504.2	1.2
0	33701	505.2	1.2
0	33748	506.2	1.2
0	33839	508.2	2.2
0	33840	508.2	1.2
0	33895	509.2	1.2
0	33943	510.2	1.2
0	33990	511.2	1.2
0	34037	512.2	1.2
0	34085	513.2	1.2
0	34132	514.2	1.2
0	34179	515.2	1.2
0	34226	516.2	1.2
0	34274	517.2	1.2
0	34321	518.2	1.2
0	34368	519.2	1.2
0	34414	520.2	1.2
0	34467	521.2	1.2
0	34523	522.2	1.2
0	34589	523.2	1.2
0	34659	524.2	1.2
0	34732	525.2	1.2
0	34804	526.2	1.2
0	34877	527.2	1.2
0	34948	528.2	1.2
0	35016	529.2	1.2
0	35092	530.2	1.2
0	35162	531.2	1.2
0	35247	532.2	1.2
0	35326	533.2	1.2
0	35398	534.2	1.2
0	35468	535.2	1.2
0	35546	536.2	1.2
0	35624	537.2	1.2
0	35707	538.2	1.2
0	35760	539.2	1.2
0	35803	540.2	1.2
0	35846	541.2	1.2
0	35891	542.2	1.2
0	35933	543.2	1.2
0	35976	544.2	1.2
0	36021	545.2	1.2
0	36064	546.2	1.2
0	36107	547.2	1.2
0	36150	548.2	1.2
0	36195	549.2	1.2
0	36239	550.2	1.2
0	36286	551.2	1.2
0	36331	552.2	1.2
0	36376	553.2	1.2
0	36420	554.2	1.2
0	36469	555.2	1.2
0	36518	556.2	1.2
0	36580	557.3	1.3
0	36629	558.3	1.3
0	36678	559.3	1.3
0	36727	560.3	1.3
0	36775	561.3	1.3
0	36901	562.3	1.3
0	37002	563.3	1.3
0	37192	564.3	1.3
0	37254	565.3	1.3
0	37311	566.3	1.3
0	37371	567.3	1.3
0	37431	568.3	1.3
0	37493	569.3	1.3
0	37555	570.3	1.3
0	37617	571.3	1.3
0	37679	572.3	1.3
0	37743	573.4	1.4
0	38154	574.4	1.4
0	38218	575.4	1.4
0	38267	576.4	1.4
0	38316	577.4	1.4
0	38367	578.4	1.4
0	38417	579.4	1.4
0	38467	580.4	1.4
0	38517	581.4	1.4
0	38567	582.4	1.4
0	38616	583.4	1.4
0	38665	584.4	1.4
0	38701	585.4	1.4
0	41061	650.1	65.1
0	41062	650.1	64.1
0	41063	650.1	63.1
0	41064	650.1	62.1
0	41065	650.1	61.1
0	41066	650.1	60.1
0	41067	650.1	59.1
0	41068	650.1	58.1
0	41069	650.1	57.1
0	41070	650.1	56.1
0	41071	650.1	55.1
0	41072	650.1	54.1
0	41073	650.1	53.1
0	41074	650.1	52.1
0	41075	650.1	51.1
0	41076	650.1	50.1
0	41077	650.1	49.1
0	41078	650.1	48.1
0	41079	650.1	47.1
0	41080	650.1	46.1
0	41081	650.1	45.1
0	41082	650.1	44.1
0	41083	650.1	43.1
0	41084	650.1	42.1
0	41085	650.1	41.1
0	41086	650.1	40.1
0	41087	650.1	39.1
0	41088	650.1	38.1
0	41089	650.1	37.1
0	41090	650.1	36.1
0	41091	650.1	35.1
0	41092	650.1	34.1
0	41093	650.1	33.1
0	41094	650.1	32.1
0	41095	650.1	31.1
0	41096	650.1	30.1
0	41097	650.1	29.1
0	41098	650.1	28.1
0	41099	650.1	27.1
0	41100	650.1	26.1
0	41101	650.1	25.1
0	41102	650.1	24.1
0	41103	650.1	23.1
0	41104	650.1	22.1
0	41105	650.1	21.1
0	41106	650.1	20.1
0	41107	650.1	19.1
0	41108	650.1	18.1
0	41109	650.1	17.1
0	41110	650.1	16.1
0	41111	650.1	15.1
0	41112	650.1	14.1
0	41113	650.1	13.1
0	41114	650.1	12.1
0	41115	650.1	11.1
0	41116	650.1	10.1
0	41117	650.1	9.1
0	41118	650.1	8.1
0	41119	650.1	7.1
0	41120	650.1	6.1
0	41121	650.1	5.1
0	41122	650.1	4.1
0	41123	650.1	3.1
0	41124	650.1	2.1
0	41797	650.4	1.4
0	41857	651.4	1.4
0	41915	652.4	1.4
0	41976	653.4	1.4
0	42037	654.4	1.4
0	42097	655.4	1.4
0	42158	656.4	1.4
0	42219	657.4	1.4
0	42280	658.4	1.4
0	42346	659.4	1.4
0	42412	660.4	1.4
0	42473	661.4	1.4
0	42537	662.2	1.2
0	42587	663.2	1.2
0	42654	664.2	1.2
0	42719	665.2	1.2
0	42784	666.2	1.2
0	42849	667.2	1.2
0	42914	668.2	1.2
0	42979	669.2	1.2
0	43044	670.2	1.2
0	43109	671.2	1.2
0	43174	672.2	1.2
0	43238	673.2	1.2
0	43302	674.2	1.2
0	43367	675.2	1.2
0	43430	676.2	1.2
0	43493	677.2	1.2
0	43553	678.2	1.2
0	43618	679.2	1.2
0	43663	680.2	1.2
0	43729	681.2	1.2
0	43876	684.4	2.4
0	43877	684.4	1.4
0	43945	685.4	4.4
0	43946	685.4	1.4
0	44008	686.4	1.4
0	44075	687.4	1.4
0	44139	688.4	1.4
0	44200	689.4	1.4
0	44260	690.4	1.4
0	44318	691.4	1.4
0	44379	692.4	1.4
0	44438	693.4	1.4
0	44497	694.4	1.4
0	44558	695.4	1.4
0	44618	696.4	1.4
0	44681	697.4	1.4
0	44742	698.4	1.4
0	44802	699.4	1.4
0	44862	700.4	1.4
0	44923	701.4	1.4
0	44979	702.4	1.4
0	45080	704.4	2.4
0	45081	704.4	1.4
0	45138	705.4	1.4
0	45187	706.4	1.4
0	46989	743.3	37.3
0	46990	743.3	36.3
0	46991	743.3	35.3
0	46992	743.3	34.3
0	46993	743.3	33.3
0	46994	743.3	32.3
0	46995	743.3	31.3
0	46996	743.3	30.3
0	46997	743.3	29.3
0	46998	743.3	28.3
0	46999	743.3	27.3
0	47000	743.3	26.3
0	47001	743.3	25.3
0	47002	743.3	24.3
0	47003	743.3	23.3
0	47004	743.3	22.3
0	47005	743.3	21.3
0	47006	743.3	20.3
0	47007	743.3	19.3
0	47008	743.3	18.3
0	47009	743.3	17.3
0	47010	743.3	16.3
0	47011	743.3	15.3
0	47012	743.3	14.3
0	47013	743.3	13.3
0	47014	743.3	12.3
0	47015	743.3	11.3
0	47016	743.3	10.3
0	47017	743.3	9.3
0	47018	743.3	8.3
0	47019	743.3	7.3
0	47020	743.3	6.3
0	47021	743.3	5.3
0	47022	743.3	4.3
0	47023	743.3	3.3
0	47024	743.3	2.3
0	47025	743.3	1.3
0	47526	744.3	1.3
0	47857	745.3	1.3
0	47936	746.3	1.3
0	48015	747.3	1.3
0	48093	748.3	1.3
0	48171	749.3	1.3
0	48314	750.3	1.3
0	48393	751.3	1.3
0	48472	752.3	1.3
0	48551	753.3	1.3
0	48630	754.3	1.3
0	48706	755.3	1.3
0	48786	756.3	1.3
0	48869	757.3	1.3
0	48952	758.3	1.3
0	49033	759.3	1.3
0	49117	760.3	1.3
0	49199	761.3	1.3
0	49284	762.3	1.3
0	49369	763.3	1.3
0	49455	764.3	1.3
0	49540	765.3	1.3
0	49633	766.3	1.3
0	49724	767.3	1.3
0	49806	768.3	1.3
0	49886	769.3	1.3
0	49968	770.3	1.3
0	50031	771.3	1.3
0	50141	773.3	2.3
0	50142	773.3	1.3
0	50221	774.3	1.3
0	50286	775.3	1.3
0	50352	776.3	1.3
0	50417	777.3	1.3
0	50482	778.3	1.3
0	50547	779.3	1.3
0	50613	780.3	1.3
0	50685	781.3	1.3
0	53474	835.1	54.1
0	53475	835.1	53.1
0	53476	835.1	52.1
0	53477	835.1	51.1
0	53478	835.1	50.1
0	53479	835.1	49.1
0	53480	835.1	48.1
0	53481	835.1	47.1
0	53482	835.1	46.1
0	53483	835.1	45.1
0	53484	835.1	44.1
0	53485	835.1	43.1
0	53486	835.1	42.1
0	53487	835.1	41.1
0	53488	835.1	40.1
0	53489	835.1	39.1
0	53490	835.1	38.1
0	53491	835.1	37.1
0	53492	835.1	36.1
0	53493	835.1	35.1
0	53494	835.1	34.1
0	53495	835.1	33.1
0	53496	835.1	32.1
0	53497	835.1	31.1
0	53498	835.1	29.1
0	53499	835.1	30.1
0	53500	835.1	28.1
0	53501	835.1	27.1
0	53502	835.1	26.1
0	53503	835.1	25.1
0	53504	835.1	24.1
0	53505	835.1	23.1
0	53506	835.1	22.1
0	53507	835.1	21.1
0	53508	835.1	20.1
0	53509	835.1	19.1
0	53510	835.1	18.1
0	53511	835.1	17.1
0	53512	835.1	16.1
0	53513	835.1	15.1
0	53514	835.1	14.1
0	53515	835.1	13.1
0	53516	835.1	12.1
0	53517	835.1	11.1
0	53518	835.1	10.1
0	53519	835.1	9.1
0	53520	835.1	8.1
0	53521	835.1	7.1
0	53522	835.1	6.1
0	53523	835.1	5.1
0	54453	844.4	13.4
0	54454	844.4	12.4
0	54455	844.4	11.4
0	54456	844.4	10.4
0	54457	844.4	9.4
0	54458	844.4	8.4
0	54459	844.4	7.4
0	54460	844.4	6.4
0	54461	844.4	5.4
0	54462	844.4	4.4
0	54463	844.4	3.4
0	54464	844.4	2.4
0	54543	844.5	1.5
0	54631	845.5	1.5
0	54691	846.5	1.5
0	54752	847.5	1.5
0	54820	848.5	1.5
0	54879	849.5	1.5
0	54936	850.5	1.5
0	54995	851.5	1.5
0	55053	852.5	1.5
0	55109	853.5	1.5
0	55165	854.5	1.5
0	55221	855.5	1.5
0	55280	856.5	1.5
0	55337	857.5	1.5
0	55394	858.5	1.5
0	55435	859.5	1.5
0	55587	862.5	3.5
0	55588	862.5	2.5
0	55589	862.5	1.5
0	55643	863.5	1.5
0	55695	864.5	1.5
0	55745	865.5	1.5
0	55795	866.5	1.5
0	55845	867.5	1.5
0	55983	868.5	1.5
0	56051	869.5	1.5
0	56118	870.5	1.5
0	56184	871.5	1.5
0	56250	872.5	1.5
0	56319	873.5	1.5
0	56386	874.5	1.5
0	56459	875.5	1.5
0	56528	876.5	1.5
0	56597	877.5	1.5
0	56666	878.5	1.5
0	56735	879.5	1.5
0	56807	880.5	1.5
0	56862	881.4	1.4
0	56906	882.4	1.4
0	56950	883.4	1.4
0	56994	884.4	1.4
0	57040	885.4	1.4
0	57086	886.4	1.4
0	57128	887.4	1.4
0	58382	925.3	38.3
0	58383	925.3	37.3
0	58384	925.3	36.3
0	58385	925.3	35.3
0	58386	925.3	34.3
0	58387	925.3	33.3
0	58388	925.3	32.3
0	58389	925.3	31.3
0	58390	925.3	30.3
0	58391	925.3	29.3
0	58392	925.3	28.3
0	58393	925.3	27.3
0	58394	925.3	26.3
0	58395	925.3	25.3
0	58396	925.3	24.3
0	58397	925.3	23.3
0	58398	925.3	22.3
0	58399	925.3	21.3
0	58400	925.3	20.3
0	58401	925.3	19.3
0	58402	925.3	18.3
0	58403	925.3	17.3
0	58404	925.3	16.3
0	58405	925.3	15.3
0	58406	925.3	14.3
0	58407	925.3	13.3
0	58408	925.3	12.3
0	58409	925.3	11.3
0	58410	925.3	10.3
0	58411	925.3	9.3
0	58412	925.3	8.3
0	58413	925.3	7.3
0	58414	925.3	6.3
0	58415	925.3	5.3
0	58416	925.3	4.3
0	58417	925.3	3.3
0	58418	925.3	2.3
0	58731	925.4	1.4
0	58973	926.4	1.4
0	59106	927.4	1.4
0	59163	928.4	1.4
0	59228	929.4	1.4
0	59297	930.4	1.4
0	59368	931.4	1.4
0	59455	932.4	1.4
0	59549	933.4	1.4
0	59645	934.4	1.4
0	59806	935.4	1.4
0	59925	936.4	1.4
0	60063	937.4	1.4
0	60205	938.4	1.4
0	60354	939.4	1.4
0	60514	940.4	1.4
0	62895	994.1	54.1
0	62896	994.1	53.1
0	62897	994.1	52.1
0	62898	994.1	51.1
0	62899	994.1	50.1
0	62900	994.1	49.1
0	62901	994.1	48.1
0	62902	994.1	47.1
0	62903	994.1	46.1
0	62904	994.1	45.1
0	62905	994.1	44.1
0	62906	994.1	43.1
0	62907	994.1	42.1
0	62908	994.1	41.1
0	62909	994.1	40.1
0	62910	994.1	39.1
0	62911	994.1	38.1
0	62912	994.1	37.1
0	62913	994.1	36.1
0	62914	994.1	35.1
0	62915	994.1	34.1
0	62916	994.1	33.1
0	62917	994.1	32.1
0	62918	994.1	31.1
0	62919	994.1	30.1
0	62920	994.1	29.1
0	62921	994.1	28.1
0	62922	994.1	27.1
0	62923	994.1	26.1
0	62924	994.1	25.1
0	62925	994.1	24.1
0	62926	994.1	23.1
0	62927	994.1	22.1
0	62928	994.1	21.1
0	62929	994.1	20.1
0	62930	994.1	19.1
0	62931	994.1	18.1
0	69375	1121.1	144.1
0	69376	1121.1	143.1
0	69377	1121.1	142.1
0	69378	1121.1	141.1
0	69379	1121.1	140.1
0	69380	1121.1	139.1
0	69381	1121.1	138.1
0	69382	1121.1	137.1
0	69383	1121.1	136.1
0	69384	1121.1	135.1
0	69385	1121.1	134.1
0	69386	1121.1	133.1
0	69387	1121.1	132.1
0	69388	1121.1	131.1
0	69389	1121.1	130.1
0	69390	1121.1	129.1
0	69391	1121.1	128.1
0	69392	1121.1	127.1
0	69393	1121.1	126.1
0	69394	1121.1	125.1
0	69395	1121.1	124.1
0	69396	1121.1	123.1
0	69397	1121.1	122.1
0	69398	1121.1	121.1
0	69399	1121.1	120.1
0	69400	1121.1	119.1
0	69401	1121.1	118.1
0	69402	1121.1	117.1
0	69403	1121.1	116.1
0	69404	1121.1	115.1
0	69405	1121.1	114.1
0	69406	1121.1	113.1
0	69407	1121.1	112.1
0	69408	1121.1	111.1
0	69409	1121.1	110.1
0	69410	1121.1	109.1
0	69411	1121.1	108.1
0	69412	1121.1	107.1
0	69413	1121.1	106.1
0	69414	1121.1	105.1
0	69415	1121.1	104.1
0	69416	1121.1	103.1
0	69417	1121.1	102.1
0	69418	1121.1	101.1
0	69419	1121.1	100.1
0	69420	1121.1	99.1
0	69421	1121.1	98.1
0	69422	1121.1	97.1
0	69423	1121.1	96.1
0	69424	1121.1	95.1
0	69425	1121.1	94.1
0	69426	1121.1	93.1
0	69427	1121.1	92.1
0	69428	1121.1	91.1
0	69429	1121.1	90.1
0	69430	1121.1	89.1
0	69431	1121.1	88.1
0	69432	1121.1	87.1
0	69433	1121.1	86.1
0	69434	1121.1	85.1
0	69435	1121.1	84.1
0	69436	1121.1	83.1
0	69437	1121.1	82.1
0	69438	1121.1	81.1
0	69439	1121.1	80.1
0	69440	1121.1	79.1
0	69441	1121.1	78.1
0	69442	1121.1	77.1
0	69443	1121.1	76.1
0	69444	1121.1	75.1
0	69445	1121.1	74.1
0	69446	1121.1	73.1
0	69447	1121.1	72.1
0	69448	1121.1	71.1
0	69449	1121.1	70.1
0	69450	1121.1	69.1
0	69451	1121.1	68.1
0	69452	1121.1	67.1
0	69453	1121.1	66.1
0	69454	1121.1	65.1
0	69455	1121.1	64.1
0	69456	1121.1	63.1
0	69457	1121.1	62.1
0	69458	1121.1	61.1
0	69459	1121.1	60.1
0	69460	1121.1	59.1
0	69461	1121.1	58.1
0	69462	1121.1	57.1
0	69463	1121.1	56.1
0	69464	1121.1	55.1
0	69465	1121.1	54.1
0	69466	1121.1	53.1
0	69467	1121.1	52.1
0	69468	1121.1	51.1
0	69469	1121.1	50.1
0	69470	1121.1	49.1
0	69471	1121.1	48.1
0	69472	1121.1	47.1
0	69473	1121.1	46.1
0	69474	1121.1	45.1
0	69475	1121.1	44.1
0	69476	1121.1	43.1
0	69477	1121.1	42.1
0	69478	1121.1	41.1
0	69479	1121.1	40.1
0	69480	1121.1	39.1
0	69481	1121.1	38.1
0	69482	1121.1	37.1
0	69483	1121.1	36.1
0	69484	1121.1	35.1
0	69485	1121.1	34.1
0	69486	1121.1	33.1
0	69487	1121.1	32.1
0	69488	1121.1	31.1
0	69489	1121.1	30.1
0	69490	1121.1	29.1
0	69491	1121.1	28.1
0	69492	1121.1	27.1
0	69493	1121.1	26.1
0	69494	1121.1	25.1
0	69495	1121.1	24.1
0	69496	1121.1	23.1
0	69497	1121.1	22.1
0	69498	1121.1	21.1
0	69499	1121.1	20.1
0	69500	1121.1	19.1
0	69501	1121.1	18.1
0	69502	1121.1	17.1
0	69503	1121.1	16.1
0	69504	1121.1	15.1
0	69505	1121.1	14.1
0	69506	1121.1	13.1
0	69507	1121.1	12.1
0	69508	1121.1	11.1
0	69509	1121.1	10.1
0	69510	1121.1	9.1
0	69511	1121.1	8.1
0	69512	1121.1	7.1
0	69513	1121.1	6.1
0	69514	1121.1	5.1
0	69515	1121.1	4.1
0	69516	1121.1	3.1
0	69517	1121.1	2.1
0	70277	1121.5	1.5
0	70336	1122.5	1.5
0	70401	1123.5	1.5
0	70462	1124.5	1.5
0	70523	1125.5	1.5
0	70584	1126.5	1.5
0	70648	1127.5	1.5
0	70710	1128.5	1.5
0	70769	1129.5	1.5
0	70878	1131.5	2.5
0	70879	1131.5	1.5
0	70947	1132.5	1.5
0	71008	1133.5	1.5
0	71069	1134.5	1.5
0	71133	1135.5	1.5
0	71193	1136.5	1.5
0	71266	1137.5	1.5
0	71325	1138.3	1.3
0	71384	1139.3	1.3
0	71456	1140.3	1.3
0	71530	1141.3	1.3
0	71604	1142.3	1.3
0	71677	1143.3	1.3
0	71750	1144.3	1.3
0	71823	1145.3	1.3
0	71894	1146.3	1.3
0	71965	1147.3	1.3
0	72038	1148.3	1.3
0	72109	1149.3	1.3
0	72180	1150.3	1.3
0	72251	1151.3	1.3
0	72322	1152.3	1.3
0	72393	1153.3	1.3
0	72469	1154.3	1.3
0	72541	1155.3	1.3
0	72613	1156.3	1.3
0	72686	1157.3	1.3
0	72758	1158.3	1.3
0	72830	1159.3	1.3
0	72902	1160.3	1.3
0	72979	1161.3	1.3
0	73053	1162.3	1.3
0	73128	1163.3	1.3
0	73204	1164.3	1.3
0	73281	1165.3	1.3
0	73361	1166.3	1.3
0	73429	1167.3	1.3
0	73493	1168.3	1.3
0	73557	1169.3	1.3
0	73626	1170.3	1.3
0	73692	1171.3	1.3
0	73756	1172.3	1.3
0	73820	1173.3	1.3
0	73887	1174.3	1.3
0	73951	1175.3	1.3
0	74014	1176.3	1.3
0	74077	1177.3	1.3
0	74140	1178.3	1.3
0	74203	1179.3	1.3
0	74253	1180.3	1.3
0	74295	1181.2	1.2
0	74420	1183.4	1.4
0	74481	1184.4	1.4
0	74541	1184.6	3.6
0	74616	1185.4	1.4
0	74765	1186.4	1.4
0	74870	1187.4	1.4
0	74970	1188.4	1.4
0	75167	1190.4	1.4
0	75168	1190.4	2.4
0	75241	1191.4	1.4
0	75313	1192.4	1.4
0	75387	1193.4	1.4
0	75457	1194.4	1.4
0	75527	1195.4	1.4
0	75597	1196.4	1.4
0	75665	1197.4	1.4
0	75733	1198.4	1.4
0	75801	1199.4	1.4
0	75869	1200.4	1.4
0	75936	1201.4	1.4
0	76005	1202.4	1.4
0	76073	1203.4	1.4
0	76141	1204.4	1.4
0	76467	1205.4	1.4
0	76666	1206.4	1.4
0	76730	1207.4	1.4
0	76795	1208.4	1.4
0	76860	1209.4	1.4
0	76927	1210.4	1.4
0	76993	1211.4	1.4
0	77061	1212.4	1.4
0	77113	1213.4	1.4
0	77161	1214.4	1.4
0	77205	1215.4	1.4
0	77246	1216.4	1.4
0	77293	1217.4	1.4
0	77333	1218.4	1.4
0	77377	1219.4	1.4
0	77421	1220.4	1.4
0	77607	1221.4	1.4
0	77650	1222.4	1.4
0	77746	1224.5	1.5
0	77819	1225.5	1.5
0	77847	1225.9	3.9
0	77896	1226.5	1.5
0	77948	1227.5	1.5
0	78022	1228.5	1.5
0	78076	1229.5	1.5
0	78133	1230.5	1.5
0	78191	1231.5	1.5
0	78247	1232.5	1.5
0	78303	1233.5	1.5
0	78355	1234.5	1.5
0	78410	1235.5	1.5
0	78466	1236.5	1.5
0	78522	1237.5	1.5
0	78575	1238.5	1.5
0	78628	1239.5	1.5
0	78681	1240.5	1.5
0	78735	1241.5	1.5
0	78801	1242.5	1.5
0	78866	1243.3	1.3
0	78931	1244.3	1.3
0	79009	1245.3	1.3
0	79088	1246.3	1.3
0	79166	1247.3	1.3
0	79242	1248.3	1.3
0	79309	1249.3	1.3
0	79627	1250.3	1.3
0	79693	1251.2	1.2
0	79760	1252.2	1.2
0	79825	1253.2	1.2
0	79888	1254.2	1.2
0	79951	1255.2	1.2
0	80014	1256.2	1.2
0	80077	1257.2	1.2
0	80140	1258.2	1.2
0	80203	1259.2	1.2
0	80265	1260.2	1.2
0	80329	1261.2	1.2
0	80396	1262.2	1.2
0	80494	1263.3	1.3
0	80574	1264.3	1.3
0	80654	1265.3	1.3
0	80735	1266.3	1.3
0	80815	1267.3	1.3
0	80895	1268.3	1.3
0	80975	1269.3	1.3
0	81055	1270.3	1.3
0	81135	1271.3	1.3
0	81218	1272.3	1.3
0	81303	1273.3	1.3
0	81387	1274.3	1.3
0	81471	1275.3	1.3
0	114252	1355.1	80.1
0	114253	1355.1	79.1
0	114254	1355.1	78.1
0	114255	1355.1	77.1
0	114256	1355.1	76.1
0	114257	1355.1	75.1
0	114258	1355.1	74.1
0	114259	1355.1	73.1
0	114260	1355.1	72.1
0	114261	1355.1	71.1
0	125149	1362.1	24.1
0	125329	1362.2	1.2
0	125330	1362.2	6.2
0	125331	1362.2	11.2
0	125332	1362.2	16.2
0	125333	1362.2	21.2
0	125956	1362.4	34.4
0	126424	1362.6	26.6
0	126499	1362.7	3.7
0	126500	1362.7	8.7
0	126501	1362.7	13.7
0	126502	1362.7	18.7
0	126564	1362.8	31.8
0	126669	1363	24
0	126833	1363.2	6.2
0	126834	1363.2	11.2
0	126835	1363.2	1.2
0	126836	1363.2	16.2
0	126837	1363.2	21.2
0	126838	1363.2	29.2
0	126965	1363.4	30.4
0	126966	1363.4	34.4
0	127567	1363.6	78.6
0	127568	1363.6	77.6
0	127569	1363.6	76.6
0	127570	1363.6	75.6
0	127571	1363.6	74.6
0	127572	1363.6	73.6
0	127573	1363.6	72.6
0	127574	1363.6	71.6
0	127575	1363.6	70.6
0	127576	1363.6	69.6
0	127577	1363.6	68.6
0	127578	1363.6	67.6
0	127579	1363.6	66.6
0	127580	1363.6	65.6
0	127581	1363.6	64.6
0	127582	1363.6	63.6
0	127583	1363.6	62.6
0	127584	1363.6	61.6
0	127585	1363.6	60.6
0	127586	1363.6	59.6
0	127587	1363.6	58.6
0	127588	1363.6	57.6
0	127589	1363.6	56.6
0	127590	1363.6	55.6
0	127591	1363.6	54.6
0	127592	1363.6	53.6
0	127593	1363.6	52.6
0	127594	1363.6	51.6
0	127595	1363.6	50.6
0	127596	1363.6	49.6
0	127597	1363.6	48.6
0	127598	1363.6	47.6
0	127599	1363.6	46.6
0	127600	1363.6	45.6
0	127601	1363.6	44.6
0	127602	1363.6	43.6
0	127603	1363.6	42.6
0	127604	1363.6	41.6
0	127605	1363.6	40.6
0	127606	1363.6	39.6
0	127607	1363.6	38.6
0	127608	1363.6	37.6
0	127609	1363.6	26.6
0	127866	1363.7	3.7
0	127867	1363.7	8.7
0	127868	1363.7	13.7
0	127869	1363.7	18.7
0	127919	1363.8	31.8
0	127993	1364	37
0	127994	1364	24
0	128116	1364.2	6.2
0	128117	1364.2	11.2
0	128118	1364.2	1.2
0	128119	1364.2	16.2
0	128120	1364.2	21.2
0	128121	1364.2	29.2
0	128232	1364.4	34.4
0	128687	1365.2	1.2
0	128820	1366.2	1.2
0	128883	1367.2	1.2
0	128967	1368.2	1.2
0	129047	1369.2	1.2
0	129147	1370.2	1.2
0	129247	1371.2	1.2
0	129370	1372.2	1.2
0	129464	1373.2	1.2
0	129558	1374.2	1.2
0	129652	1375.2	1.2
0	129749	1376.2	1.2
0	129841	1377.2	1.2
0	129943	1378.2	1.2
0	130030	1379.2	1.2
0	130117	1380.2	1.2
0	130204	1381.2	1.2
0	130288	1382.2	1.2
0	130441	1384.2	2.2
0	130442	1384.2	1.2
0	130526	1385.2	1.2
0	130619	1386.2	1.2
0	130709	1387.2	1.2
0	130797	1388.2	1.2
0	130886	1389.2	1.2
0	130974	1390.2	1.2
0	131062	1391.2	1.2
0	131151	1392.2	1.2
0	131239	1393.2	1.2
0	131327	1394.2	1.2
0	131415	1395.2	1.2
0	131503	1396.2	1.2
0	131594	1397.2	1.2
0	131684	1398.2	1.2
0	131770	1399.2	1.2
0	131855	1400.2	1.2
0	131940	1401.2	1.2
0	132025	1402.2	1.2
0	132109	1403.2	1.2
0	132193	1404.2	1.2
0	132275	1405.2	1.2
0	132357	1406.2	1.2
0	132439	1407.2	1.2
0	132521	1408.2	1.2
0	132603	1409.2	1.2
0	132685	1410.2	1.2
0	132767	1411.2	1.2
0	132849	1412.2	1.2
0	132934	1413.2	1.2
0	133017	1414.2	1.2
0	133100	1415.2	1.2
0	133183	1416.2	1.2
0	133267	1417.2	1.2
0	133350	1418.2	1.2
0	133424	1419.2	1.2
0	133496	1420.2	1.2
0	133578	1421.2	1.2
0	133635	1422.2	1.2
0	134033	1428.4	6.4
0	134034	1428.4	5.4
0	134035	1428.4	4.4
0	134036	1428.4	3.4
0	134037	1428.4	2.4
0	134132	1428.6	1.6
0	134266	1429.6	1.6
0	134393	1430.6	1.6
0	134479	1431.6	1.6
0	134613	1432.6	1.6
0	134744	1433.6	1.6
0	134875	1434.6	1.6
0	134963	1435.6	1.6
0	135094	1436.6	1.6
0	135227	1437.6	1.6
0	135358	1438.6	1.6
0	135443	1439.6	1.6
0	135571	1440.6	1.6
0	135690	1441.6	1.6
0	135857	1442.4	1.4
0	135966	1443.4	1.4
0	136079	1444.4	1.4
0	136279	1445.4	1.4
0	136392	1446.4	1.4
0	136552	1447.4	1.4
0	136669	1448.4	1.4
0	136797	1449.4	1.4
0	137010	1450.4	1.4
0	137140	1451.4	1.4
0	137338	1452.4	1.4
0	137475	1453.2	1.2
0	137604	1454.2	1.2
0	137833	1455.2	1.2
0	137968	1456.2	1.2
0	138061	1457.2	1.2
0	138283	1458.2	1.2
0	138419	1459.2	1.2
0	138643	1460.2	1.2
0	138782	1461.2	1.2
0	138856	1462.2	1.2
0	138971	1463.2	1.2
0	139074	1464.2	1.2
0	139121	1465.2	1.2
0	139167	1466.2	1.2
0	139213	1467.2	1.2
0	139259	1468.2	1.2
0	139305	1469.2	1.2
0	139354	1470.2	1.2
0	139401	1471.2	1.2
0	139451	1472.2	1.2
0	139499	1473.2	1.2
0	139549	1474.2	1.2
0	139599	1475.2	1.2
0	139649	1476.2	1.2
0	139698	1477.2	1.2
0	139747	1478.2	1.2
0	139796	1479.2	1.2
0	139846	1480.2	1.2
0	139894	1481.2	1.2
0	139941	1482.2	1.2
0	139989	1483.2	1.2
0	140372	1484.2	1.2
0	140457	1485.3	1.3
0	140528	1486.3	1.3
0	140605	1487.3	1.3
0	140682	1488.3	1.3
0	140763	1489.3	1.3
0	140841	1490.3	1.3
0	140919	1491.3	1.3
0	140997	1492.3	1.3
0	141075	1493.3	1.3
0	141153	1494.3	1.3
0	141231	1495.3	1.3
0	141309	1496.3	1.3
0	141387	1497.3	1.3
0	141465	1498.3	1.3
0	141539	1499.3	1.3
0	141664	1501.4	2.4
0	141665	1501.4	1.4
0	141714	1502.4	1.4
0	141854	1504.4	2.4
0	141855	1504.4	1.4
0	141912	1505.4	1.4
0	141995	1506.4	1.4
0	142057	1507.4	1.4
0	142133	1508.4	1.4
0	142178	1509.4	1.4
0	142288	1510.4	1.4
0	142344	1511.4	1.4
0	142400	1512.4	1.4
0	142456	1513.4	1.4
0	142513	1514.4	1.4
0	142571	1515.4	1.4
0	142629	1516.4	1.4
0	142686	1517.4	1.4
0	142743	1518.4	1.4
0	142800	1519.4	1.4
0	142860	1520.4	1.4
0	142918	1521.4	1.4
0	142974	1522.4	1.4
0	143033	1523.4	1.4
0	143090	1524.4	1.4
0	143152	1525.4	1.4
0	143211	1526.4	1.4
0	143276	1527.4	1.4
0	143341	1528.4	1.4
0	143402	1529.4	1.4
0	143463	1530.4	1.4
0	143526	1531.4	1.4
0	143588	1532.4	1.4
0	143651	1533.4	1.4
0	143713	1534.4	1.4
0	143775	1535.4	1.4
0	143840	1536.4	1.4
0	143903	1537.4	1.4
0	143968	1538.4	1.4
0	144031	1539.4	1.4
0	144091	1540.4	1.4
0	144194	1542.4	2.4
0	144195	1542.4	1.4
0	144265	1543.4	1.4
0	144324	1544.4	1.4
0	144380	1545.4	1.4
0	144479	1547.4	2.4
0	144480	1547.4	1.4
0	144548	1548.4	1.4
0	144606	1549.4	1.4
0	144664	1550.4	1.4
0	144724	1551.4	1.4
0	144782	1552.4	1.4
0	144843	1553.4	1.4
0	144914	1554.4	1.4
0	144985	1555.4	1.4
0	145054	1556.4	1.4
0	145123	1557.4	1.4
0	145195	1558.4	1.4
0	145264	1559.4	1.4
0	145335	1560.4	1.4
0	145406	1561.4	1.4
0	145477	1562.4	1.4
0	145548	1563.4	1.4
0	145620	1564.4	1.4
0	145690	1565.4	1.4
0	145760	1566.4	1.4
0	145829	1567.4	1.4
0	145898	1568.4	1.4
0	145965	1569.4	1.4
0	146036	1570.4	1.4
0	146107	1571.4	1.4
0	146179	1572.4	1.4
0	146293	1574.4	2.4
0	146294	1574.4	1.4
0	146395	1575.4	1.4
0	146462	1576.4	1.4
0	146529	1577.4	1.4
0	146596	1578.4	1.4
0	146662	1579.4	1.4
0	146727	1580.4	1.4
0	146792	1581.4	1.4
0	146859	1582.4	1.4
0	146910	1583.4	1.4
0	147501	1600.4	17.4
0	147502	1600.4	16.4
0	147503	1600.4	15.4
0	147504	1600.4	14.4
0	147505	1600.4	13.4
0	147506	1600.4	12.4
0	147507	1600.4	11.4
0	147508	1600.4	10.4
0	147509	1600.4	9.4
0	147510	1600.4	8.4
0	147511	1600.4	7.4
0	147512	1600.4	6.4
0	147513	1600.4	5.4
0	147514	1600.4	4.4
0	147515	1600.4	3.4
0	147516	1600.4	2.4
0	147517	1600.4	1.4
0	147788	1601.4	1.4
0	148032	1602.4	1.4
0	148149	1603.4	1.4
0	148235	1604.4	1.4
0	148323	1605.4	1.4
0	148407	1606.4	1.4
0	148492	1607.4	1.4
0	148577	1608.4	1.4
0	148660	1609.4	1.4
0	148743	1610.4	1.4
0	148825	1611.4	1.4
0	148907	1612.4	1.4
0	148989	1613.4	1.4
0	149064	1614.4	1.4
0	149134	1615.4	1.4
0	149224	1616.4	1.4
0	149305	1617.4	1.4
0	149386	1618.4	1.4
0	149466	1619.4	1.4
0	149552	1620.4	1.4
0	149634	1621.4	1.4
0	149718	1622.4	1.4
0	149802	1623.4	1.4
0	149886	1624.4	1.4
0	149971	1625.4	1.4
0	150053	1626.4	1.4
0	150135	1627.4	1.4
0	150217	1628.4	1.4
0	150317	1629.4	1.4
0	150411	1630.4	1.4
0	150503	1631.4	1.4
0	150596	1632.4	1.4
0	150686	1633.4	1.4
0	150776	1634.4	1.4
0	150866	1635.4	1.4
0	150956	1636.4	1.4
0	151047	1637.4	1.4
0	151135	1638.4	1.4
0	151223	1639.4	1.4
0	151315	1640.4	1.4
0	151403	1641.4	1.4
0	151483	1642.4	1.4
0	159954	1699.1	57.1
0	159955	1699.1	56.1
0	159956	1699.1	55.1
0	159957	1699.1	54.1
0	159958	1699.1	53.1
0	159959	1699.1	52.1
0	159960	1699.1	51.1
0	159961	1699.1	50.1
0	159962	1699.1	49.1
0	166359	1713.1	14.1
0	166360	1713.1	19.1
0	166361	1713.1	6.1
0	166362	1713.1	24.1
0	166363	1713.1	11.1
0	166364	1713.1	16.1
0	166365	1713.1	3.1
0	166366	1713.1	21.1
0	166367	1713.1	8.1
0	166368	1713.1	48.1
0	166369	1713.1	53.1
0	166370	1713.1	40.1
0	166371	1713.1	45.1
0	166372	1713.1	50.1
0	166373	1713.1	42.1
0	166374	1713.1	47.1
0	166375	1713.1	52.1
0	166376	1713.1	39.1
0	166377	1713.1	44.1
0	166378	1713.1	49.1
0	166379	1713.1	41.1
0	166380	1713.1	46.1
0	166381	1713.1	51.1
0	166382	1713.1	38.1
0	166383	1713.1	62.1
0	166384	1713.1	61.1
0	166385	1713.1	60.1
0	166386	1713.1	59.1
0	166387	1713.1	58.1
0	166388	1713.1	57.1
0	166389	1713.1	56.1
0	166390	1713.1	55.1
0	166391	1713.1	54.1
0	166392	1713.1	43.1
0	166393	1713.1	37.1
0	166394	1713.1	36.1
0	166395	1713.1	35.1
0	166396	1713.1	34.1
0	166397	1713.1	33.1
0	166398	1713.1	32.1
0	166399	1713.1	31.1
0	166400	1713.1	30.1
0	166401	1713.1	29.1
0	166402	1713.1	28.1
0	166403	1713.1	27.1
0	166404	1713.1	26.1
0	166405	1713.1	13.1
0	166406	1713.1	18.1
0	166407	1713.1	5.1
0	166408	1713.1	23.1
0	166409	1713.1	10.1
0	166410	1713.1	15.1
0	166411	1713.1	2.1
0	166412	1713.1	20.1
0	166413	1713.1	7.1
0	166414	1713.1	25.1
0	166415	1713.1	12.1
0	166416	1713.1	17.1
0	166417	1713.1	4.1
0	166563	1713.3	22.3
0	166564	1713.3	9.3
0	166581	1713.5	1.5
0	167036	1714.5	1.5
0	167157	1715.5	1.5
0	167258	1716.5	1.5
0	167356	1717.5	1.5
0	167515	1718.3	1.3
0	167624	1719.3	1.3
0	167759	1720.3	1.3
0	167874	1721.3	1.3
0	167976	1722.3	1.3
0	168145	1723.3	1.3
0	168264	1724.3	1.3
0	168386	1725.3	1.3
0	168476	1726.3	1.3
0	168548	1727.3	1.3
0	168620	1728.3	1.3
0	168692	1729.3	1.3
0	168764	1730.3	1.3
0	168836	1731.3	1.3
0	168910	1732.3	1.3
0	168983	1733.3	1.3
0	169056	1734.3	1.3
0	169132	1735.3	1.3
0	169207	1736.3	1.3
0	169282	1737.3	1.3
0	169360	1738.3	1.3
0	169434	1739.3	1.3
0	169508	1740.3	1.3
0	169700	1741.3	1.3
0	169780	1742.3	1.3
0	169824	1743.3	1.3
0	171941	1790.3	47.3
0	171942	1790.3	46.3
0	171943	1790.3	45.3
0	171944	1790.3	44.3
0	171945	1790.3	43.3
0	171946	1790.3	42.3
0	171947	1790.3	41.3
0	171948	1790.3	40.3
0	171949	1790.3	39.3
0	171950	1790.3	38.3
0	171951	1790.3	37.3
0	171952	1790.3	36.3
0	171953	1790.3	35.3
0	171954	1790.3	34.3
0	171955	1790.3	33.3
0	171956	1790.3	32.3
0	171957	1790.3	31.3
0	171958	1790.3	30.3
0	171959	1790.3	29.3
0	171960	1790.3	28.3
0	171961	1790.3	27.3
0	171962	1790.3	26.3
0	171963	1790.3	25.3
0	171964	1790.3	24.3
0	171965	1790.3	23.3
0	171966	1790.3	22.3
0	171967	1790.3	21.3
0	171968	1790.3	20.3
0	171969	1790.3	19.3
0	171970	1790.3	18.3
0	171971	1790.3	17.3
0	171972	1790.3	16.3
0	171973	1790.3	15.3
0	171974	1790.3	14.3
0	171975	1790.3	13.3
0	171976	1790.3	12.3
0	171977	1790.3	11.3
0	171978	1790.3	10.3
0	171979	1790.3	9.3
0	171980	1790.3	8.3
0	171981	1790.3	7.3
0	171982	1790.3	6.3
0	171983	1790.3	5.3
0	171984	1790.3	4.3
0	171985	1790.3	3.3
0	171986	1790.3	2.3
0	171987	1790.3	1.3
0	172644	1791.3	1.3
0	172750	1792.3	1.3
0	172908	1794.3	2.3
0	172909	1794.3	1.3
0	173029	1795.3	1.3
0	173138	1796.3	1.3
0	173208	1797.3	1.3
0	173332	1798.3	1.3
0	173449	1799.3	1.3


