version 2
run General-0-20250117-15:08:31-200185
attr configname General
attr datetime 20250117-15:08:31
attr experiment General
attr inifile shaw_false.ini
attr iterationvars ""
attr iterationvarsf ""
attr measurement ""
attr network src.dtnsim
attr processid 200185
attr repetition 0
attr replication #0
attr resultdir results
attr runnumber 0
attr seedset 0
param dtnsim.central.contactsFile "\"contactPlan/Contacts.txt\""
param dtnsim.central.contactsFile_A "\"contactPlan/Contacts.txt\""
param dtnsim.central.contactsFile_B "\"contactPlan/Contacts.txt\""
param dtnsim.central.contactIdsToDelete_from_celestialA "\"4 17 21 22 26 29 35 37 47 59 72 74 83 94 96 101 113 122 133 134 137 145 147 149 151 152 155 172 181 182 183 187 191 194 195 199 203 204 207 210 227 228 236 237 240 241 251 254 257 260 270 273 278 279 284 312 326 328 329 332 334 335 336 341 342 343 345 360 366 369 371 372 378 383 390 396 400 409 411 413 414 427 437 438 444 454 457 460 466 471 477\""
param dtnsim.central.contactIdsToDelete_from_celestialB "\"2 3 7 9 10 12 13 14 15 20 27 28 36 39 43 55 60 63 65 71 75 78 80 81 85 87 88 90 93 97 99 109 112 115 123 139 150 157 159 160 163 166 173 174 186 189 193 202 209 224 250 253 255 261 267 274 276 281 286 289 292 305 309 313 314 315 316 318 321 324 339 340 348 349 350 351 352 359 362 363 365 370 375 376 381 382 386 387 393 394 397 402 406 408 416 420 423 425 430 435 447 450 452 453 456 462 473 476 480\""
param dtnsim.central.celestialA_nodes "\"1 2 3\""
param dtnsim.central.celestialB_nodes "\"4 5 6\""
param dtnsim.central.locallyfaultsAware false
param dtnsim.central.mode_two_celestial true
param dtnsim.nodesNumber 6
param dtnsim.node[1].icon "\"receiverdish\""
param dtnsim.node[2..5].icon "\"satellite\""
param dtnsim.node[6].icon "\"receiverdish\""
param dtnsim.node[*].dtn.routing "\"cgrModel350\""
param dtnsim.node[*].dtn.routingType "\"routeListType:allPaths-firstEnding,volumeAware:allContacts,extensionBlock:on,contactPlan:global\""
param dtnsim.node[1].app.enable true
param dtnsim.node[1].app.bundlesNumber "\"8000\""
param dtnsim.node[1].app.start "\"0\""
param dtnsim.node[1].app.destinationEid "\"6\""
param dtnsim.node[1].app.size "\"1500\""
param dtnsim.node[1].app.interval 10

vector 0 dtnsim.node[6].app appBundleReceivedDelayvec:vector ETV
attr interpolationmode none
attr source appBundleReceivedDelay
attr title "appBundleReceivedDelayvec, vector"
0	23239	75281	1
0	23330	75291	1
0	23421	75301	1
0	23511	75311	1
0	23601	75321	1
0	23694	75331	1
0	23785	75341	1
0	23879	75351	1
0	23971	75361	1
0	24061	75371	1
0	24151	75381	1
0	24241	75391	1
0	24331	75401	1
0	24424	75411	1
0	24515	75421	1
0	24606	75431	1
0	24697	75441	1
0	24788	75451	1
0	24883	75461	1
0	24976	75471	1
0	25067	75481	1
0	25158	75491	1
0	25252	75501	1
0	25344	75511	1
0	25436	75521	1
0	25528	75531	1
0	25622	75541	1
0	25715	75551	1
0	25809	75561	1
0	25901	75571	1
0	25994	75581	1
0	26085	75591	1
0	26176	75601	1
0	26269	75611	1
0	26359	75621	1
0	26451	75631	1
0	26541	75641	1
0	26631	75651	1
0	26721	75661	1
0	26814	75671	1
0	26907	75681	1
0	26998	75691	1
0	27089	75701	1
0	27180	75711	1
0	27274	75721	1
0	27367	75731	1
0	27458	75741	1
0	27551	75751	1
0	27644	75761	1
0	27739	75771	1
0	27829	75781	1
0	27919	75791	1
0	28014	75801	1
0	28105	75811	1
0	28196	75821	1
0	28290	75831	1
0	28382	75841	1
0	28474	75851	1
0	28566	75861	1
0	28661	75871	1
0	28757	75881	1
0	28849	75891	1
0	28943	75901	1
0	29035	75911	1
0	33547	77261	1
0	33622	77271	1
0	33696	77281	1
0	33771	77291	1
0	33845	77301	1
0	33919	77311	1
0	33993	77321	1
0	34067	77331	1
0	34142	77341	1
0	34217	77351	1
0	34292	77361	1
0	34367	77371	1
0	34441	77381	1
0	34514	77391	1
0	34586	77401	1
0	34658	77411	1
0	34730	77421	1
0	34802	77431	1
0	34874	77441	1
0	34946	77451	1
0	35018	77461	1
0	35090	77471	1
0	35162	77481	1
0	35234	77491	1
0	35306	77501	1
0	35378	77511	1
0	35455	77521	1
0	35528	77531	1
0	35601	77541	1
0	35674	77551	1
0	35748	77561	1
0	35821	77571	1
0	35895	77581	1
0	35967	77591	1
0	36039	77601	1
0	36112	77611	1
0	36184	77621	1
0	36256	77631	1
0	36329	77641	1
0	36400	77651	1
0	36471	77661	1
0	36545	77671	1
0	36618	77681	1
0	36689	77691	1
0	36759	77701	1
0	36829	77711	1
0	37207	77811	1
0	37273	77821	1
0	37337	77831	1
0	37401	77841	1
0	37465	77851	1
0	37530	77861	1
0	37597	77871	1
0	37662	77881	1
0	37728	77891	1
0	37793	77901	1
0	37861	77911	1
0	37933	77921	1
0	37998	77931	1
0	38063	77941	1
0	38127	77951	1
0	38191	77961	1
0	38255	77971	1
0	38319	77981	1
0	38385	77991	1
0	38448	78001	1
0	38512	78011	1
0	38578	78021	1
0	38640	78031	1
0	38703	78041	1
0	38765	78051	1
0	38826	78061	1
0	38888	78071	1
0	38952	78081	1
0	39013	78091	1
0	39074	78101	1
0	39136	78111	1
0	39196	78121	1
0	39256	78131	1
0	39316	78141	1
0	39376	78151	1
0	39440	78161	1
0	39499	78171	1
0	39558	78181	1
0	39617	78191	1
0	39676	78201	1
0	39734	78211	1
0	39792	78221	1
0	39850	78231	1
0	39908	78241	1
0	39967	78251	1
0	40024	78261	1
0	40082	78271	1
0	40140	78281	1
0	40198	78291	1
0	40255	78301	1
0	40313	78311	1
0	40369	78321	1
0	40425	78331	1
0	40481	78341	1
0	40536	78351	1
0	40591	78361	1
0	40646	78371	1
0	40701	78381	1
0	40756	78391	1
0	40815	78401	1
0	40871	78411	1
0	40929	78421	1
0	40985	78431	1
0	41043	78441	1
0	41099	78451	1
0	41155	78461	1
0	41211	78471	1
0	41267	78481	1
0	41323	78491	1
0	41379	78501	1
0	41435	78511	1
0	41491	78521	1
0	44111	79221	1
0	44159	79231	1
0	44207	79241	1
0	44256	79251	1
0	44304	79261	1
0	44352	79271	1
0	44402	79281	1
0	44450	79291	1
0	44500	79301	1
0	44548	79311	1
0	44596	79321	1
0	44643	79331	1
0	44690	79341	1
0	44739	79351	1
0	44786	79361	1
0	44832	79371	1
0	44877	79381	1
0	44924	79391	1
0	44972	79401	1
0	45017	79411	1
0	45062	79421	1
0	45107	79431	1
0	45152	79441	1
0	45198	79451	1
0	45243	79461	1
0	45290	79471	1
0	45334	79481	1
0	45379	79491	1
0	45423	79501	1
0	45468	79511	1
0	45511	79521	1
0	45554	79531	1

