version 2
run General-0-20250114-06:44:30-6006
attr configname General
attr datetime 20250114-06:44:30
attr experiment General
attr inifile shaw.ini
attr iterationvars ""
attr iterationvarsf ""
attr measurement ""
attr network src.dtnsim
attr processid 6006
attr repetition 0
attr replication #0
attr resultdir results
attr runnumber 0
attr seedset 0
param dtnsim.central.contactsFile "\"contactPlan/Contacts.txt\""
param dtnsim.central.contactsFile_A "\"contactPlan/Contacts_A.txt\""
param dtnsim.central.contactsFile_B "\"contactPlan/Contacts_B.txt\""
param dtnsim.central.contactIdsToDelete_from_celestialA "\"1 4 10 27 30 35 42 43 63 66 87 110 121 129 135 140 141 143 151 171 179 211 216 230 243 250 279 283 292 309 317 318 325 326 344 352 353 356 379 386 389 391 399 416 437 438 447 456 466 467 473 474 482\""
param dtnsim.central.contactIdsToDelete_from_celestialB "\"14 15 36 46 53 62 71 83 84 111 113 114 115 120 156 157 167 186 187 194 207 210 213 231 262 276 284 286 303 320 323 334 340 355 357 365 366 373 404 409 412 433 445 471 477 493 496\""
param dtnsim.central.celestialA_nodes "\"1 2 3\""
param dtnsim.central.celestialB_nodes "\"4 5 6\""
param dtnsim.central.locallyfaultsAware true
param dtnsim.central.mode_two_celestial true
param dtnsim.nodesNumber 6
param dtnsim.node[1].icon "\"receiverdish\""
param dtnsim.node[2..5].icon "\"satellite\""
param dtnsim.node[6].icon "\"receiverdish\""
param dtnsim.node[*].dtn.routing "\"cgrModel350\""
param dtnsim.node[*].dtn.routingType "\"routeListType:allPaths-firstEnding,volumeAware:allContacts,extensionBlock:on,contactPlan:global\""
param dtnsim.node[1].app.enable true
param dtnsim.node[*].app.custodyTransfer true
param dtnsim.node[1].app.bundlesNumber "\"2000\""
param dtnsim.node[1].app.start "\"0\""
param dtnsim.node[1].app.destinationEid "\"6\""
param dtnsim.node[1].app.size "\"1500\""
param dtnsim.node[1].app.interval 1

vector 0 dtnsim.node[6].app appBundleReceivedDelayvec:vector ETV
attr interpolationmode none
attr source appBundleReceivedDelay
attr title "appBundleReceivedDelayvec, vector"
0	9683	309.4	309.4
0	9684	309.4	308.4
0	9685	309.4	307.4
0	9686	309.4	306.4
0	9687	309.4	305.4
0	9688	309.4	304.4
0	9689	309.4	303.4
0	9690	309.4	302.4
0	9691	309.4	301.4
0	9692	309.4	300.4
0	9693	309.4	299.4
0	9694	309.4	298.4
0	9695	309.4	297.4
0	9696	309.4	296.4
0	9697	309.4	295.4
0	9698	309.4	294.4
0	9699	309.4	293.4
0	9700	309.4	292.4
0	9701	309.4	291.4
0	9702	309.4	290.4
0	9703	309.4	289.4
0	9704	309.4	288.4
0	9705	309.4	287.4
0	9706	309.4	286.4
0	9707	309.4	285.4
0	9708	309.4	284.4
0	9709	309.4	283.4
0	9710	309.4	282.4
0	9711	309.4	281.4
0	9712	309.4	280.4
0	9713	309.4	279.4
0	9714	309.4	278.4
0	9715	309.4	277.4
0	9716	309.4	276.4
0	9717	309.4	275.4
0	9718	309.4	274.4
0	9719	309.4	273.4
0	9720	309.4	272.4
0	9721	309.4	271.4
0	9722	309.4	270.4
0	9723	309.4	269.4
0	9724	309.4	268.4
0	9725	309.4	267.4
0	9726	309.4	266.4
0	9727	309.4	265.4
0	9728	309.4	264.4
0	9729	309.4	263.4
0	9730	309.4	262.4
0	9731	309.4	261.4
0	9732	309.4	260.4
0	9733	309.4	259.4
0	9734	309.4	258.4
0	9735	309.4	257.4
0	9736	309.4	256.4
0	9737	309.4	255.4
0	9738	309.4	254.4
0	9739	309.4	253.4
0	9740	309.4	252.4
0	9741	309.4	251.4
0	9742	309.4	250.4
0	9743	309.4	249.4
0	9744	309.4	248.4
0	9745	309.4	247.4
0	9746	309.4	246.4
0	9747	309.4	245.4
0	9748	309.4	244.4
0	9749	309.4	243.4
0	9750	309.4	242.4
0	9751	309.4	241.4
0	9752	309.4	240.4
0	9753	309.4	239.4
0	9754	309.4	238.4
0	9755	309.4	237.4
0	9756	309.4	236.4
0	9757	309.4	235.4
0	9758	309.4	234.4
0	9759	309.4	233.4
0	9760	309.4	232.4
0	9761	309.4	231.4
0	9762	309.4	230.4
0	9763	309.4	229.4
0	9764	309.4	228.4
0	9765	309.4	227.4
0	9766	309.4	226.4
0	9767	309.4	225.4
0	9768	309.4	224.4
0	9769	309.4	223.4
0	9770	309.4	222.4
0	9771	309.4	221.4
0	9772	309.4	220.4
0	9773	309.4	219.4
0	9774	309.4	218.4
0	9775	309.4	217.4
0	9776	309.4	216.4
0	9777	309.4	215.4
0	9778	309.4	214.4
0	9779	309.4	213.4
0	9780	309.4	212.4
0	9781	309.4	211.4
0	9782	309.4	210.4
0	9783	309.4	209.4
0	9784	309.4	208.4
0	9785	309.4	207.4
0	9786	309.4	206.4
0	9787	309.4	205.4
0	9788	309.4	204.4
0	9789	309.4	203.4
0	9790	309.4	202.4
0	9791	309.4	201.4
0	9792	309.4	200.4
0	9793	309.4	199.4
0	9794	309.4	198.4
0	9795	309.4	197.4
0	9796	309.4	196.4
0	9797	309.4	195.4
0	9798	309.4	194.4
0	9799	309.4	193.4
0	9800	309.4	192.4
0	9801	309.4	191.4
0	9802	309.4	190.4
0	9803	309.4	189.4
0	9804	309.4	188.4
0	9805	309.4	187.4
0	9806	309.4	186.4
0	9807	309.4	185.4
0	9808	309.4	184.4
0	9809	309.4	183.4
0	9810	309.4	182.4
0	9811	309.4	181.4
0	9812	309.4	180.4
0	9813	309.4	179.4
0	9814	309.4	178.4
0	9815	309.4	177.4
0	9816	309.4	176.4
0	9817	309.4	175.4
0	9818	309.4	174.4
0	9819	309.4	173.4
0	9820	309.4	172.4
0	9821	309.4	171.4
0	9822	309.4	170.4
0	9823	309.4	169.4
0	9824	309.4	168.4
0	9825	309.4	167.4
0	9826	309.4	166.4
0	9827	309.4	165.4
0	9828	309.4	164.4
0	9829	309.4	163.4
0	9830	309.4	162.4
0	9831	309.4	161.4
0	9832	309.4	160.4
0	9833	309.4	159.4
0	9834	309.4	158.4
0	9835	309.4	157.4
0	9836	309.4	156.4
0	9837	309.4	155.4
0	9838	309.4	154.4
0	9839	309.4	153.4
0	9840	309.4	152.4
0	9841	309.4	151.4
0	9842	309.4	150.4
0	9843	309.4	149.4
0	9844	309.4	148.4
0	9845	309.4	147.4
0	9846	309.4	146.4
0	9847	309.4	145.4
0	9848	309.4	144.4
0	9849	309.4	143.4
0	9850	309.4	142.4
0	9851	309.4	141.4
0	9852	309.4	140.4
0	9853	309.4	139.4
0	9854	309.4	138.4
0	9855	309.4	137.4
0	9856	309.4	136.4
0	9857	309.4	135.4
0	9858	309.4	134.4
0	9859	309.4	133.4
0	9860	309.4	132.4
0	9861	309.4	131.4
0	9862	309.4	130.4
0	9863	309.4	129.4
0	9864	309.4	128.4
0	9865	309.4	127.4
0	9866	309.4	126.4
0	9867	309.4	125.4
0	9868	309.4	124.4
0	9869	309.4	123.4
0	9870	309.4	122.4
0	9871	309.4	121.4
0	9872	309.4	120.4
0	9873	309.4	119.4
0	9874	309.4	118.4
0	9875	309.4	117.4
0	9876	309.4	116.4
0	9877	309.4	115.4
0	9878	309.4	114.4
0	9879	309.4	113.4
0	9880	309.4	112.4
0	9881	309.4	111.4
0	9882	309.4	110.4
0	9883	309.4	109.4
0	9884	309.4	108.4
0	9885	309.4	107.4
0	9886	309.4	106.4
0	9887	309.4	105.4
0	9888	309.4	104.4
0	9889	309.4	103.4
0	9890	309.4	102.4
0	9891	309.4	101.4
0	9892	309.4	100.4
0	9893	309.4	99.4
0	9894	309.4	98.4
0	9895	309.4	97.4
0	9896	309.4	96.4
0	9897	309.4	95.4
0	9898	309.4	94.4
0	9899	309.4	93.4
0	9900	309.4	92.4
0	9901	309.4	91.4
0	9902	309.4	90.4
0	9903	309.4	89.4
0	9904	309.4	88.4
0	9905	309.4	87.4
0	9906	309.4	86.4
0	9907	309.4	85.4
0	9908	309.4	84.4
0	9909	309.4	83.4
0	9910	309.4	82.4
0	9911	309.4	81.4
0	9912	309.4	80.4
0	9913	309.4	79.4
0	9914	309.4	78.4
0	9915	309.4	77.4
0	9916	309.4	76.4
0	9917	309.4	75.4
0	9918	309.4	74.4
0	9919	309.4	73.4
0	9920	309.4	72.4
0	9921	309.4	71.4
0	9922	309.4	70.4
0	9923	309.4	69.4
0	9924	309.4	68.4
0	9925	309.4	67.4
0	9926	309.4	66.4
0	9927	309.4	65.4
0	9928	309.4	64.4
0	9929	309.4	63.4
0	9930	309.4	62.4
0	9931	309.4	61.4
0	9932	309.4	60.4
0	9933	309.4	59.4
0	9934	309.4	58.4
0	9935	309.4	57.4
0	9936	309.4	56.4
0	9937	309.4	55.4
0	9938	309.4	54.4
0	9939	309.4	53.4
0	9940	309.4	52.4
0	9941	309.4	51.4
0	9942	309.4	50.4
0	9943	309.4	49.4
0	9944	309.4	48.4
0	9945	309.4	47.4
0	9946	309.4	46.4
0	9947	309.4	45.4
0	9948	309.4	44.4
0	9949	309.4	43.4
0	9950	309.4	42.4
0	9951	309.4	41.4
0	9952	309.4	40.4
0	9953	309.4	39.4
0	9954	309.4	38.4
0	9955	309.4	37.4
0	9956	309.4	36.4
0	9957	309.4	35.4
0	9958	309.4	34.4
0	9959	309.4	33.4
0	9960	309.4	32.4
0	9961	309.4	31.4
0	9962	309.4	30.4
0	9963	309.4	29.4
0	9964	309.4	28.4
0	9965	309.4	27.4
0	9966	309.4	26.4
0	9967	309.4	25.4
0	9968	309.4	24.4
0	9969	309.4	23.4
0	9970	309.4	22.4
0	9971	309.4	21.4
0	9972	309.4	20.4
0	9973	309.4	19.4
0	9974	309.4	18.4
0	9975	309.4	17.4
0	9976	309.4	16.4
0	9977	309.4	15.4
0	9978	309.4	14.4
0	9979	309.4	13.4
0	9980	309.4	12.4
0	9981	309.4	11.4
0	9982	309.4	10.4
0	9983	309.4	9.4
0	9984	309.4	8.4
0	9985	309.4	7.4
0	9986	309.4	6.4
0	9987	309.4	5.4
0	9988	309.4	4.4
0	9989	309.4	3.4
0	9990	309.4	2.4
0	10004	309.5	1.5
0	10040	310.5	1.5
0	10076	311.5	1.5
0	10112	312.5	1.5
0	10148	313.5	1.5
0	10184	314.5	1.5
0	10222	315.5	1.5
0	10259	316.5	1.5
0	10296	317.5	1.5
0	10333	318.5	1.5
0	10370	319.5	1.5
0	10407	320.5	1.5
0	10444	321.5	1.5
0	10481	322.5	1.5
0	10518	323.5	1.5
0	10555	324.5	1.5
0	10592	325.5	1.5
0	10629	326.5	1.5
0	10669	327.5	1.5
0	10707	328.5	1.5
0	10745	329.5	1.5
0	10783	330.5	1.5
0	10821	331.5	1.5
0	10859	332.5	1.5
0	10900	333.5	1.5
0	10939	334.5	1.5
0	10978	335.5	1.5
0	11017	336.5	1.5
0	11056	337.5	1.5
0	11095	338.5	1.5
0	11134	339.5	1.5
0	11175	340.5	1.5
0	11214	341.5	1.5
0	11252	342.5	1.5
0	11290	343.5	1.5
0	11328	344.5	1.5
0	11372	345.5	1.5
0	11386	346.5	1.5
0	19558	409.4	409.4
0	19559	409.4	409.4
0	19560	409.4	408.4
0	19561	409.4	408.4
0	19562	409.4	407.4
0	19563	409.4	407.4
0	19564	409.4	406.4
0	19565	409.4	406.4
0	19566	409.4	405.4
0	19567	409.4	405.4
0	19568	409.4	404.4
0	19569	409.4	404.4
0	19570	409.4	403.4
0	19571	409.4	403.4
0	19572	409.4	402.4
0	19573	409.4	402.4
0	19574	409.4	401.4
0	19575	409.4	401.4
0	19576	409.4	400.4
0	19577	409.4	400.4
0	19578	409.4	399.4
0	19579	409.4	399.4
0	19580	409.4	398.4
0	19581	409.4	398.4
0	19582	409.4	397.4
0	19583	409.4	397.4
0	19584	409.4	396.4
0	19585	409.4	396.4
0	19586	409.4	395.4
0	19587	409.4	395.4
0	19588	409.4	394.4
0	19589	409.4	394.4
0	19590	409.4	393.4
0	19591	409.4	393.4
0	19592	409.4	392.4
0	19593	409.4	392.4
0	19594	409.4	391.4
0	19595	409.4	391.4
0	19596	409.4	390.4
0	19597	409.4	390.4
0	19598	409.4	389.4
0	19599	409.4	389.4
0	19600	409.4	388.4
0	19601	409.4	388.4
0	19602	409.4	387.4
0	19603	409.4	387.4
0	19604	409.4	386.4
0	19605	409.4	386.4
0	19606	409.4	385.4
0	19607	409.4	385.4
0	19608	409.4	384.4
0	19609	409.4	384.4
0	19610	409.4	383.4
0	19611	409.4	383.4
0	19612	409.4	382.4
0	19613	409.4	382.4
0	19614	409.4	381.4
0	19615	409.4	381.4
0	19616	409.4	380.4
0	19617	409.4	380.4
0	19618	409.4	379.4
0	19619	409.4	379.4
0	19620	409.4	378.4
0	19621	409.4	378.4
0	19622	409.4	377.4
0	19623	409.4	377.4
0	19624	409.4	376.4
0	19625	409.4	376.4
0	19626	409.4	375.4
0	19627	409.4	375.4
0	19628	409.4	374.4
0	19629	409.4	374.4
0	19630	409.4	373.4
0	19631	409.4	373.4
0	19632	409.4	372.4
0	19633	409.4	372.4
0	19634	409.4	371.4
0	19635	409.4	371.4
0	19636	409.4	370.4
0	19637	409.4	370.4
0	19638	409.4	369.4
0	19639	409.4	369.4
0	19640	409.4	368.4
0	19641	409.4	368.4
0	19642	409.4	367.4
0	19643	409.4	367.4
0	19644	409.4	366.4
0	19645	409.4	366.4
0	19646	409.4	365.4
0	19647	409.4	365.4
0	19648	409.4	364.4
0	19649	409.4	364.4
0	19650	409.4	363.4
0	19651	409.4	363.4
0	19652	409.4	362.4
0	19653	409.4	362.4
0	19654	409.4	361.4
0	19655	409.4	361.4
0	19656	409.4	360.4
0	19657	409.4	360.4
0	19658	409.4	359.4
0	19659	409.4	359.4
0	19660	409.4	358.4
0	19661	409.4	358.4
0	19662	409.4	357.4
0	19663	409.4	357.4
0	19664	409.4	356.4
0	19665	409.4	356.4
0	19666	409.4	355.4
0	19667	409.4	355.4
0	19668	409.4	354.4
0	19669	409.4	354.4
0	19670	409.4	353.4
0	19671	409.4	353.4
0	19672	409.4	352.4
0	19673	409.4	352.4
0	19674	409.4	351.4
0	19675	409.4	351.4
0	19676	409.4	350.4
0	19677	409.4	350.4
0	19678	409.4	349.4
0	19679	409.4	349.4
0	19680	409.4	348.4
0	19681	409.4	348.4
0	19682	409.4	347.4
0	19683	409.4	347.4
0	19684	409.4	346.4
0	19685	409.4	346.4
0	19686	409.4	345.4
0	19687	409.4	345.4
0	19688	409.4	344.4
0	19689	409.4	344.4
0	19690	409.4	343.4
0	19691	409.4	343.4
0	19692	409.4	342.4
0	19693	409.4	342.4
0	19694	409.4	341.4
0	19695	409.4	341.4
0	19696	409.4	340.4
0	19697	409.4	340.4
0	19698	409.4	339.4
0	19699	409.4	339.4
0	19700	409.4	338.4
0	19701	409.4	338.4
0	19702	409.4	337.4
0	19703	409.4	337.4
0	19704	409.4	336.4
0	19705	409.4	336.4
0	19706	409.4	335.4
0	19707	409.4	335.4
0	19708	409.4	334.4
0	19709	409.4	334.4
0	19710	409.4	333.4
0	19711	409.4	333.4
0	19712	409.4	332.4
0	19713	409.4	332.4
0	19714	409.4	331.4
0	19715	409.4	331.4
0	19716	409.4	330.4
0	19717	409.4	330.4
0	19718	409.4	329.4
0	19719	409.4	329.4
0	19720	409.4	328.4
0	19721	409.4	328.4
0	19722	409.4	327.4
0	19723	409.4	327.4
0	19724	409.4	326.4
0	19725	409.4	326.4
0	19726	409.4	325.4
0	19727	409.4	325.4
0	19728	409.4	324.4
0	19729	409.4	324.4
0	19730	409.4	323.4
0	19731	409.4	323.4
0	19732	409.4	322.4
0	19733	409.4	322.4
0	19734	409.4	321.4
0	19735	409.4	321.4
0	19736	409.4	320.4
0	19737	409.4	320.4
0	19738	409.4	319.4
0	19739	409.4	319.4
0	19740	409.4	318.4
0	19741	409.4	318.4
0	19742	409.4	317.4
0	19743	409.4	317.4
0	19744	409.4	316.4
0	19745	409.4	316.4
0	19746	409.4	315.4
0	19747	409.4	315.4
0	19748	409.4	314.4
0	19749	409.4	314.4
0	19750	409.4	313.4
0	19751	409.4	313.4
0	19752	409.4	312.4
0	19753	409.4	312.4
0	19754	409.4	311.4
0	19755	409.4	311.4
0	19756	409.4	310.4
0	19757	409.4	310.4
0	19758	409.4	309.4
0	19759	409.4	309.4
0	19760	409.4	308.4
0	19761	409.4	308.4
0	19762	409.4	307.4
0	19763	409.4	307.4
0	19764	409.4	306.4
0	19765	409.4	306.4
0	19766	409.4	305.4
0	19767	409.4	305.4
0	19768	409.4	304.4
0	19769	409.4	304.4
0	19770	409.4	303.4
0	19771	409.4	303.4
0	19772	409.4	302.4
0	19773	409.4	302.4
0	19774	409.4	301.4
0	19775	409.4	301.4
0	19776	409.4	300.4
0	19777	409.4	300.4
0	19778	409.4	299.4
0	19779	409.4	299.4
0	19780	409.4	298.4
0	19781	409.4	298.4
0	19782	409.4	297.4
0	19783	409.4	297.4
0	19784	409.4	296.4
0	19785	409.4	296.4
0	19786	409.4	295.4
0	19787	409.4	295.4
0	19788	409.4	294.4
0	19789	409.4	294.4
0	19790	409.4	293.4
0	19791	409.4	293.4
0	19792	409.4	292.4
0	19793	409.4	292.4
0	19794	409.4	291.4
0	19795	409.4	291.4
0	19796	409.4	290.4
0	19797	409.4	290.4
0	19798	409.4	289.4
0	19799	409.4	289.4
0	19800	409.4	288.4
0	19801	409.4	288.4
0	19802	409.4	287.4
0	19803	409.4	287.4
0	19804	409.4	286.4
0	19805	409.4	286.4
0	19806	409.4	285.4
0	19807	409.4	285.4
0	19808	409.4	284.4
0	19809	409.4	284.4
0	19810	409.4	283.4
0	19811	409.4	283.4
0	19812	409.4	282.4
0	19813	409.4	282.4
0	19814	409.4	281.4
0	19815	409.4	281.4
0	19816	409.4	280.4
0	19817	409.4	280.4
0	19818	409.4	279.4
0	19819	409.4	279.4
0	19820	409.4	278.4
0	19821	409.4	278.4
0	19822	409.4	277.4
0	19823	409.4	277.4
0	19824	409.4	276.4
0	19825	409.4	276.4
0	19826	409.4	275.4
0	19827	409.4	275.4
0	19828	409.4	274.4
0	19829	409.4	274.4
0	19830	409.4	273.4
0	19831	409.4	273.4
0	19832	409.4	272.4
0	19833	409.4	272.4
0	19834	409.4	271.4
0	19835	409.4	271.4
0	19836	409.4	270.4
0	19837	409.4	270.4
0	19838	409.4	269.4
0	19839	409.4	269.4
0	19840	409.4	268.4
0	19841	409.4	268.4
0	19842	409.4	267.4
0	19843	409.4	267.4
0	19844	409.4	266.4
0	19845	409.4	266.4
0	19846	409.4	265.4
0	19847	409.4	265.4
0	19848	409.4	264.4
0	19849	409.4	264.4
0	19850	409.4	263.4
0	19851	409.4	263.4
0	19852	409.4	262.4
0	19853	409.4	262.4
0	19854	409.4	261.4
0	19855	409.4	261.4
0	19856	409.4	260.4
0	19857	409.4	260.4
0	19858	409.4	259.4
0	19859	409.4	259.4
0	19860	409.4	258.4
0	19861	409.4	258.4
0	19862	409.4	257.4
0	19863	409.4	257.4
0	19864	409.4	256.4
0	19865	409.4	256.4
0	19866	409.4	255.4
0	19867	409.4	255.4
0	19868	409.4	254.4
0	19869	409.4	254.4
0	19870	409.4	253.4
0	19871	409.4	253.4
0	19872	409.4	252.4
0	19873	409.4	252.4
0	19874	409.4	251.4
0	19875	409.4	251.4
0	19876	409.4	250.4
0	19877	409.4	250.4
0	19878	409.4	249.4
0	19879	409.4	249.4
0	19880	409.4	248.4
0	19881	409.4	248.4
0	19882	409.4	247.4
0	19883	409.4	247.4
0	19884	409.4	246.4
0	19885	409.4	246.4
0	19886	409.4	245.4
0	19887	409.4	245.4
0	19888	409.4	244.4
0	19889	409.4	244.4
0	19890	409.4	243.4
0	19891	409.4	243.4
0	19892	409.4	242.4
0	19893	409.4	242.4
0	19894	409.4	241.4
0	19895	409.4	241.4
0	19896	409.4	240.4
0	19897	409.4	240.4
0	19898	409.4	239.4
0	19899	409.4	239.4
0	19900	409.4	238.4
0	19901	409.4	238.4
0	19902	409.4	237.4
0	19903	409.4	237.4
0	19904	409.4	236.4
0	19905	409.4	236.4
0	19906	409.4	235.4
0	19907	409.4	235.4
0	19908	409.4	234.4
0	19909	409.4	234.4
0	19910	409.4	233.4
0	19911	409.4	233.4
0	19912	409.4	232.4
0	19913	409.4	232.4
0	19914	409.4	231.4
0	19915	409.4	231.4
0	19916	409.4	230.4
0	19917	409.4	230.4
0	19918	409.4	229.4
0	19919	409.4	229.4
0	19920	409.4	228.4
0	19921	409.4	228.4
0	19922	409.4	227.4
0	19923	409.4	227.4
0	19924	409.4	226.4
0	19925	409.4	226.4
0	19926	409.4	225.4
0	19927	409.4	225.4
0	19928	409.4	224.4
0	19929	409.4	224.4
0	19930	409.4	223.4
0	19931	409.4	223.4
0	19932	409.4	222.4
0	19933	409.4	222.4
0	19934	409.4	221.4
0	19935	409.4	221.4
0	19936	409.4	220.4
0	19937	409.4	220.4
0	19938	409.4	219.4
0	19939	409.4	219.4
0	19940	409.4	218.4
0	19941	409.4	218.4
0	19942	409.4	217.4
0	19943	409.4	217.4
0	19944	409.4	216.4
0	19945	409.4	216.4
0	19946	409.4	215.4
0	19947	409.4	215.4
0	19948	409.4	214.4
0	19949	409.4	214.4
0	19950	409.4	213.4
0	19951	409.4	213.4
0	19952	409.4	212.4
0	19953	409.4	212.4
0	19954	409.4	211.4
0	19955	409.4	211.4
0	19956	409.4	210.4
0	19957	409.4	210.4
0	19958	409.4	209.4
0	19959	409.4	209.4
0	19960	409.4	208.4
0	19961	409.4	208.4
0	19962	409.4	207.4
0	19963	409.4	207.4
0	19964	409.4	206.4
0	19965	409.4	206.4
0	19966	409.4	205.4
0	19967	409.4	205.4
0	19968	409.4	204.4
0	19969	409.4	204.4
0	19970	409.4	203.4
0	19971	409.4	203.4
0	19972	409.4	202.4
0	19973	409.4	202.4
0	19974	409.4	201.4
0	19975	409.4	201.4
0	19976	409.4	200.4
0	19977	409.4	200.4
0	19978	409.4	199.4
0	19979	409.4	199.4
0	19980	409.4	198.4
0	19981	409.4	198.4
0	19982	409.4	197.4
0	19983	409.4	197.4
0	19984	409.4	196.4
0	19985	409.4	196.4
0	19986	409.4	195.4
0	19987	409.4	195.4
0	19988	409.4	194.4
0	19989	409.4	194.4
0	19990	409.4	193.4
0	19991	409.4	193.4
0	19992	409.4	192.4
0	19993	409.4	192.4
0	19994	409.4	191.4
0	19995	409.4	191.4
0	19996	409.4	190.4
0	19997	409.4	190.4
0	19998	409.4	189.4
0	19999	409.4	189.4
0	20000	409.4	188.4
0	20001	409.4	188.4
0	20002	409.4	187.4
0	20003	409.4	187.4
0	20004	409.4	186.4
0	20005	409.4	186.4
0	20006	409.4	185.4
0	20007	409.4	185.4
0	20008	409.4	184.4
0	20009	409.4	184.4
0	20010	409.4	183.4
0	20011	409.4	183.4
0	20012	409.4	182.4
0	20013	409.4	182.4
0	20014	409.4	181.4
0	20015	409.4	181.4
0	20016	409.4	180.4
0	20017	409.4	180.4
0	20018	409.4	179.4
0	20019	409.4	179.4
0	20020	409.4	178.4
0	20021	409.4	178.4
0	20022	409.4	177.4
0	20023	409.4	177.4
0	20024	409.4	176.4
0	20025	409.4	176.4
0	20026	409.4	175.4
0	20027	409.4	175.4
0	20028	409.4	174.4
0	20029	409.4	174.4
0	20030	409.4	173.4
0	20031	409.4	173.4
0	20032	409.4	172.4
0	20033	409.4	172.4
0	20034	409.4	171.4
0	20035	409.4	171.4
0	20036	409.4	170.4
0	20037	409.4	170.4
0	20038	409.4	169.4
0	20039	409.4	169.4
0	20040	409.4	168.4
0	20041	409.4	168.4
0	20042	409.4	167.4
0	20043	409.4	167.4
0	20044	409.4	166.4
0	20045	409.4	166.4
0	20046	409.4	165.4
0	20047	409.4	165.4
0	20048	409.4	164.4
0	20049	409.4	164.4
0	20050	409.4	163.4
0	20051	409.4	163.4
0	20052	409.4	162.4
0	20053	409.4	162.4
0	20054	409.4	161.4
0	20055	409.4	161.4
0	20056	409.4	160.4
0	20057	409.4	160.4
0	20058	409.4	159.4
0	20059	409.4	159.4
0	20060	409.4	158.4
0	20061	409.4	158.4
0	20062	409.4	157.4
0	20063	409.4	157.4
0	20064	409.4	156.4
0	20065	409.4	156.4
0	20066	409.4	155.4
0	20067	409.4	155.4
0	20068	409.4	154.4
0	20069	409.4	154.4
0	20070	409.4	153.4
0	20071	409.4	153.4
0	20072	409.4	152.4
0	20073	409.4	152.4
0	20074	409.4	151.4
0	20075	409.4	151.4
0	20076	409.4	150.4
0	20077	409.4	150.4
0	20078	409.4	149.4
0	20079	409.4	149.4
0	20080	409.4	148.4
0	20081	409.4	148.4
0	20082	409.4	147.4
0	20083	409.4	147.4
0	20084	409.4	146.4
0	20085	409.4	146.4
0	20086	409.4	145.4
0	20087	409.4	145.4
0	20088	409.4	144.4
0	20089	409.4	144.4
0	20090	409.4	143.4
0	20091	409.4	143.4
0	20092	409.4	142.4
0	20093	409.4	142.4
0	20094	409.4	141.4
0	20095	409.4	141.4
0	20096	409.4	140.4
0	20097	409.4	140.4
0	20098	409.4	139.4
0	20099	409.4	139.4
0	20100	409.4	138.4
0	20101	409.4	138.4
0	20102	409.4	137.4
0	20103	409.4	137.4
0	20104	409.4	136.4
0	20105	409.4	136.4
0	20106	409.4	135.4
0	20107	409.4	135.4
0	20108	409.4	134.4
0	20109	409.4	134.4
0	20110	409.4	133.4
0	20111	409.4	133.4
0	20112	409.4	132.4
0	20113	409.4	132.4
0	20114	409.4	131.4
0	20115	409.4	131.4
0	20116	409.4	130.4
0	20117	409.4	130.4
0	20118	409.4	129.4
0	20119	409.4	129.4
0	20120	409.4	128.4
0	20121	409.4	128.4
0	20122	409.4	127.4
0	20123	409.4	127.4
0	20124	409.4	126.4
0	20125	409.4	126.4
0	20126	409.4	125.4
0	20127	409.4	125.4
0	20128	409.4	124.4
0	20129	409.4	124.4
0	20130	409.4	123.4
0	20131	409.4	123.4
0	20132	409.4	122.4
0	20133	409.4	122.4
0	20134	409.4	121.4
0	20135	409.4	121.4
0	20136	409.4	120.4
0	20137	409.4	120.4
0	20138	409.4	119.4
0	20139	409.4	119.4
0	20140	409.4	118.4
0	20141	409.4	118.4
0	20142	409.4	117.4
0	20143	409.4	117.4
0	20144	409.4	116.4
0	20145	409.4	116.4
0	20146	409.4	115.4
0	20147	409.4	115.4
0	20148	409.4	114.4
0	20149	409.4	114.4
0	20150	409.4	113.4
0	20151	409.4	113.4
0	20152	409.4	112.4
0	20153	409.4	112.4
0	20154	409.4	111.4
0	20155	409.4	111.4
0	20156	409.4	110.4
0	20157	409.4	110.4
0	20158	409.4	109.4
0	20159	409.4	109.4
0	20160	409.4	108.4
0	20161	409.4	108.4
0	20162	409.4	107.4
0	20163	409.4	107.4
0	20164	409.4	106.4
0	20165	409.4	106.4
0	20166	409.4	105.4
0	20167	409.4	105.4
0	20168	409.4	104.4
0	20169	409.4	104.4
0	20170	409.4	103.4
0	20171	409.4	103.4
0	20172	409.4	102.4
0	20173	409.4	102.4
0	21733	409.5	101.5
0	21734	409.5	101.5
0	22388	410.5	101.5
0	22389	410.5	101.5
0	22428	411.5	101.5
0	22429	411.5	101.5
0	22468	412.5	101.5
0	22469	412.5	101.5
0	22508	413.5	101.5
0	22509	413.5	101.5
0	22548	414.5	101.5
0	22549	414.5	101.5
0	22588	415.5	101.5
0	22589	415.5	101.5
0	22628	416.5	101.5
0	22629	416.5	101.5
0	22668	417.5	101.5
0	22669	417.5	101.5
0	22708	418.5	101.5
0	22709	418.5	101.5
0	22748	419.5	101.5
0	22749	419.5	101.5
0	22788	420.5	101.5
0	22789	420.5	101.5
0	22828	421.5	101.5
0	22829	421.5	101.5
0	22868	422.5	101.5
0	22869	422.5	101.5
0	22908	423.5	101.5
0	22909	423.5	101.5
0	22948	424.5	101.5
0	22949	424.5	101.5
0	22988	425.5	101.5
0	22989	425.5	101.5
0	23028	426.5	101.5
0	23029	426.5	101.5
0	23068	427.5	101.5
0	23069	427.5	101.5
0	23108	428.5	101.5
0	23109	428.5	101.5
0	23148	429.5	101.5
0	23149	429.5	101.5
0	23188	430.5	101.5
0	23189	430.5	101.5
0	23228	431.5	101.5
0	23229	431.5	101.5
0	23268	432.5	101.5
0	23269	432.5	101.5
0	23308	433.5	101.5
0	23309	433.5	101.5
0	23348	434.5	101.5
0	23349	434.5	101.5
0	23388	435.5	101.5
0	23389	435.5	101.5
0	23428	436.5	101.5
0	23429	436.5	101.5
0	23468	437.5	101.5
0	23469	437.5	101.5
0	23508	438.5	101.5
0	23509	438.5	101.5
0	23548	439.5	101.5
0	23549	439.5	101.5
0	23588	440.5	101.5
0	23589	440.5	101.5
0	23628	441.5	101.5
0	23629	441.5	101.5
0	23668	442.5	101.5
0	23669	442.5	101.5
0	23708	443.5	101.5
0	23709	443.5	101.5
0	23745	444.5	101.5
0	23746	444.5	101.5
0	23782	445.5	101.5
0	23783	445.5	101.5
0	23803	446.5	101.5
0	38113	682.2	336.2
0	38114	682.2	335.2
0	38115	682.2	334.2
0	38116	682.2	333.2
0	38117	682.2	332.2
0	38118	682.2	331.2
0	38119	682.2	330.2
0	38120	682.2	329.2
0	38121	682.2	328.2
0	38122	682.2	327.2
0	38123	682.2	326.2
0	38124	682.2	325.2
0	38125	682.2	324.2
0	38126	682.2	323.2
0	38127	682.2	322.2
0	38128	682.2	321.2
0	38129	682.2	320.2
0	38130	682.2	319.2
0	38131	682.2	318.2
0	38132	682.2	317.2
0	38133	682.2	316.2
0	38134	682.2	315.2
0	38135	682.2	314.2
0	38136	682.2	313.2
0	38137	682.2	312.2
0	38138	682.2	311.2
0	38139	682.2	310.2
0	38140	682.2	309.2
0	38141	682.2	308.2
0	38142	682.2	307.2
0	38143	682.2	306.2
0	38144	682.2	305.2
0	38145	682.2	304.2
0	38146	682.2	303.2
0	38147	682.2	302.2
0	38148	682.2	301.2
0	38149	682.2	300.2
0	38150	682.2	299.2
0	38151	682.2	298.2
0	38152	682.2	297.2
0	38153	682.2	296.2
0	38154	682.2	295.2
0	38155	682.2	294.2
0	38156	682.2	293.2
0	38157	682.2	292.2
0	38158	682.2	291.2
0	38159	682.2	290.2
0	38160	682.2	289.2
0	38161	682.2	288.2
0	38162	682.2	287.2
0	38163	682.2	286.2
0	38164	682.2	285.2
0	38165	682.2	284.2
0	38166	682.2	283.2
0	38167	682.2	282.2
0	38168	682.2	281.2
0	38169	682.2	280.2
0	38170	682.2	279.2
0	38171	682.2	278.2
0	38172	682.2	277.2
0	38173	682.2	276.2
0	38174	682.2	275.2
0	38175	682.2	274.2
0	38176	682.2	273.2
0	38177	682.2	272.2
0	38178	682.2	271.2
0	38179	682.2	270.2
0	38180	682.2	269.2
0	38181	682.2	268.2
0	38182	682.2	267.2
0	38183	682.2	266.2
0	38184	682.2	265.2
0	38185	682.2	264.2
0	38186	682.2	263.2
0	38187	682.2	262.2
0	38188	682.2	261.2
0	38189	682.2	260.2
0	38190	682.2	259.2
0	38191	682.2	258.2
0	38192	682.2	257.2
0	38193	682.2	256.2
0	38194	682.2	255.2
0	38195	682.2	254.2
0	38196	682.2	253.2
0	38197	682.2	252.2
0	38198	682.2	251.2
0	38199	682.2	250.2
0	38200	682.2	249.2
0	38201	682.2	248.2
0	38202	682.2	247.2
0	38203	682.2	246.2
0	38204	682.2	245.2
0	38205	682.2	244.2
0	38206	682.2	243.2
0	38207	682.2	242.2
0	38208	682.2	241.2
0	38209	682.2	240.2
0	38210	682.2	239.2
0	38211	682.2	238.2
0	38212	682.2	237.2
0	38213	682.2	236.2
0	38214	682.2	235.2
0	38215	682.2	234.2
0	38216	682.2	233.2
0	38217	682.2	232.2
0	38218	682.2	231.2
0	38219	682.2	230.2
0	38220	682.2	229.2
0	38221	682.2	228.2
0	38222	682.2	227.2
0	38223	682.2	226.2
0	38224	682.2	225.2
0	38225	682.2	224.2
0	38226	682.2	223.2
0	38227	682.2	222.2
0	38228	682.2	221.2
0	38229	682.2	220.2
0	38230	682.2	219.2
0	38231	682.2	218.2
0	38232	682.2	217.2
0	38233	682.2	216.2
0	38234	682.2	215.2
0	38235	682.2	214.2
0	38236	682.2	213.2
0	38237	682.2	212.2
0	38238	682.2	211.2
0	38239	682.2	210.2
0	38240	682.2	209.2
0	38241	682.2	208.2
0	38242	682.2	207.2
0	38243	682.2	206.2
0	38244	682.2	205.2
0	38245	682.2	204.2
0	38246	682.2	203.2
0	38247	682.2	202.2
0	38248	682.2	201.2
0	38249	682.2	200.2
0	38250	682.2	199.2
0	38251	682.2	198.2
0	38252	682.2	197.2
0	38253	682.2	196.2
0	38254	682.2	195.2
0	38255	682.2	194.2
0	38256	682.2	193.2
0	38257	682.2	192.2
0	38258	682.2	191.2
0	38259	682.2	190.2
0	38260	682.2	189.2
0	38261	682.2	188.2
0	38262	682.2	187.2
0	38263	682.2	186.2
0	38264	682.2	185.2
0	38265	682.2	184.2
0	38266	682.2	183.2
0	38267	682.2	182.2
0	38268	682.2	181.2
0	38269	682.2	180.2
0	38270	682.2	179.2
0	38271	682.2	178.2
0	38272	682.2	177.2
0	38273	682.2	176.2
0	38274	682.2	175.2
0	38275	682.2	174.2
0	38276	682.2	173.2
0	38277	682.2	172.2
0	38278	682.2	171.2
0	38279	682.2	170.2
0	38280	682.2	169.2
0	38281	682.2	168.2
0	38282	682.2	167.2
0	38283	682.2	166.2
0	38284	682.2	165.2
0	38285	682.2	164.2
0	38286	682.2	163.2
0	38287	682.2	162.2
0	38288	682.2	161.2
0	38289	682.2	160.2
0	38290	682.2	159.2
0	38291	682.2	158.2
0	38292	682.2	157.2
0	38293	682.2	156.2
0	38294	682.2	155.2
0	38295	682.2	154.2
0	38296	682.2	153.2
0	38297	682.2	152.2
0	38298	682.2	151.2
0	38299	682.2	150.2
0	38300	682.2	149.2
0	38301	682.2	148.2
0	38302	682.2	147.2
0	38303	682.2	146.2
0	38304	682.2	145.2
0	38305	682.2	144.2
0	38306	682.2	143.2
0	38307	682.2	142.2
0	38308	682.2	141.2
0	38309	682.2	140.2
0	38310	682.2	139.2
0	38311	682.2	138.2
0	38312	682.2	137.2
0	38313	682.2	136.2
0	38314	682.2	135.2
0	38315	682.2	134.2
0	38316	682.2	133.2
0	38317	682.2	132.2
0	38318	682.2	131.2
0	38319	682.2	130.2
0	38320	682.2	129.2
0	38321	682.2	128.2
0	38322	682.2	127.2
0	38323	682.2	126.2
0	38324	682.2	125.2
0	38325	682.2	124.2
0	38326	682.2	123.2
0	38327	682.2	122.2
0	38328	682.2	121.2
0	38329	682.2	120.2
0	38330	682.2	119.2
0	38331	682.2	118.2
0	38332	682.2	117.2
0	38333	682.2	116.2
0	38334	682.2	115.2
0	38335	682.2	114.2
0	38336	682.2	113.2
0	38337	682.2	112.2
0	38338	682.2	111.2
0	38339	682.2	110.2
0	38340	682.2	109.2
0	38341	682.2	108.2
0	38342	682.2	107.2
0	38343	682.2	106.2
0	38344	682.2	105.2
0	38345	682.2	104.2
0	38346	682.2	103.2
0	38347	682.2	102.2
0	38348	682.2	101.2
0	38349	682.2	100.2
0	38350	682.2	99.2
0	38351	682.2	98.2
0	38352	682.2	97.2
0	38353	682.2	96.2
0	38354	682.2	95.2
0	38355	682.2	94.2
0	38356	682.2	93.2
0	38357	682.2	92.2
0	38358	682.2	91.2
0	38359	682.2	90.2
0	38360	682.2	89.2
0	38361	682.2	88.2
0	38362	682.2	87.2
0	38363	682.2	86.2
0	38364	682.2	85.2
0	38365	682.2	84.2
0	38366	682.2	83.2
0	38367	682.2	82.2
0	38368	682.2	81.2
0	38369	682.2	80.2
0	38370	682.2	79.2
0	38371	682.2	78.2
0	38372	682.2	77.2
0	38373	682.2	76.2
0	38374	682.2	75.2
0	38375	682.2	74.2
0	38376	682.2	73.2
0	38377	682.2	72.2
0	38378	682.2	71.2
0	38379	682.2	70.2
0	38380	682.2	69.2
0	38381	682.2	68.2
0	38382	682.2	67.2
0	38383	682.2	66.2
0	38384	682.2	65.2
0	38385	682.2	64.2
0	38386	682.2	63.2
0	38387	682.2	62.2
0	38388	682.2	61.2
0	38389	682.2	60.2
0	38390	682.2	59.2


