version 2
run General-0-20250116-08:13:42-158096
attr configname General
attr datetime 20250116-08:13:42
attr experiment General
attr inifile shaw.ini
attr iterationvars ""
attr iterationvarsf ""
attr measurement ""
attr network src.dtnsim
attr processid 158096
attr repetition 0
attr replication #0
attr resultdir results
attr runnumber 0
attr seedset 0
param dtnsim.central.contactsFile "\"contactPlan/Contacts.txt\""
param dtnsim.central.contactsFile_A "\"contactPlan/Contacts_A.txt\""
param dtnsim.central.contactsFile_B "\"contactPlan/Contacts_B.txt\""
param dtnsim.central.contactIdsToDelete_from_celestialA "\"1 3 5 9 14 20 29 49 56 59 64 73 86 94 106 117 125 135 145 161 183 186 217 223 228 240 243 252 262 264 266 267 269 285 286 290 291 301 303 313 320 372 386 395 402 412 415 419 421 424 430 447\""
param dtnsim.central.contactIdsToDelete_from_celestialB "\"17 33 35 39 43 45 91 93 99 123 128 129 130 134 141 154 163 169 178 181 184 185 188 195 198 219 237 256 258 260 268 273 275 283 284 293 298 338 343 344 352 358 360 363 413 439 451 454\""
param dtnsim.central.locallyfaultsAware false
param dtnsim.central.mode_two_celestial true
param dtnsim.nodesNumber 6
param dtnsim.node[1].icon "\"receiverdish\""
param dtnsim.node[2..5].icon "\"satellite\""
param dtnsim.node[6].icon "\"receiverdish\""
param dtnsim.node[*].dtn.routing "\"cgrModel350\""
param dtnsim.node[*].dtn.routingType "\"routeListType:allPaths-firstEnding,volumeAware:allContacts,extensionBlock:on,contactPlan:global\""
param dtnsim.node[1].app.enable true
param dtnsim.node[1].app.bundlesNumber "\"8640\""
param dtnsim.node[1].app.start "\"0\""
param dtnsim.node[1].app.destinationEid "\"6\""
param dtnsim.node[1].app.size "\"1500\""
param dtnsim.node[1].app.interval 10

vector 0 dtnsim.node[6].app appBundleReceivedDelayvec:vector ETV
attr interpolationmode none
attr source appBundleReceivedDelay
attr title "appBundleReceivedDelayvec, vector"
0	5615	4210	4210
0	5626	4210	4200
0	5637	4210	4190
0	5644	4210	4180
0	5650	4210	4170
0	5656	4210	4160
0	5662	4210	4150
0	5668	4210	4140
0	5674	4210	4130
0	5680	4210	4120
0	5686	4210	4110
0	5692	4210	4100
0	5698	4210	4090
0	5704	4210	4080
0	5710	4210	4070
0	5716	4210	4060
0	5722	4210	4050
0	5728	4210	4040
0	5734	4210	4030
0	5740	4210	4020
0	5746	4210	4010
0	5752	4210	4000
0	5758	4210	3990
0	5764	4210	3980
0	5770	4210	3970
0	5776	4210	3960
0	5782	4210	3950
0	5788	4210	3940
0	5794	4210	3930
0	5800	4210	3920
0	5806	4210	3910
0	5812	4210	3900
0	5818	4210	3890
0	5824	4210	3880
0	5830	4210	3870
0	5836	4210	3860
0	5842	4210	3850
0	5848	4210	3840
0	5854	4210	3830
0	5860	4210	3820
0	5866	4210	3810
0	5872	4210	3800
0	5878	4210	3790
0	5884	4210	3780
0	5890	4210	3770
0	5896	4210	3760
0	5902	4210	3750
0	5908	4210	3740
0	5914	4210	3730
0	5920	4210	3720
0	5926	4210	3710
0	5932	4210	3700
0	5938	4210	3690
0	5944	4210	3680
0	5950	4210	3670
0	5956	4210	3660
0	5962	4210	3650
0	5968	4210	3640
0	5974	4210	3630
0	5980	4210	3620
0	5986	4210	3610
0	5992	4210	3600
0	5998	4210	3590
0	6004	4210	3580
0	6010	4210	3570
0	6016	4210	3560
0	6022	4210	3550
0	6028	4210	3540
0	6034	4210	3530
0	6040	4210	3520
0	6046	4210	3510
0	6052	4210	3500
0	6058	4210	3490
0	6064	4210	3480
0	6070	4210	3470
0	6076	4210	3460
0	6082	4210	3450
0	6088	4210	3440
0	6094	4210	3430
0	6100	4210	3420
0	6106	4210	3410
0	6112	4210	3400
0	6118	4210	3390
0	6124	4210	3380
0	6130	4210	3370
0	6136	4210	3360
0	6142	4210	3350
0	6148	4210	3340
0	6154	4210	3330
0	6160	4210	3320
0	6166	4210	3310
0	6172	4210	3300
0	6178	4210	3290
0	6184	4210	3280
0	6190	4210	3270
0	6196	4210	3260
0	6202	4210	3250
0	6208	4210	3240
0	6214	4210	3230
0	6220	4210	3220
0	6226	4210	3210
0	6232	4210	3200
0	6238	4210	3190
0	6244	4210	3180
0	6250	4210	3170
0	6256	4210	3160
0	6262	4210	3150
0	6268	4210	3140
0	6274	4210	3130
0	6280	4210	3120
0	6286	4210	3110
0	6292	4210	3100
0	6298	4210	3090
0	6304	4210	3080
0	6310	4210	3070
0	6316	4210	3060
0	6322	4210	3050
0	6328	4210	3040
0	6334	4210	3030
0	6340	4210	3020
0	6346	4210	3010
0	6352	4210	3000
0	6358	4210	2990
0	6364	4210	2980
0	6370	4210	2970
0	6376	4210	2960
0	6382	4210	2950
0	6388	4210	2940
0	6394	4210	2930
0	6400	4210	2920
0	6406	4210	2910
0	6412	4210	2900
0	6418	4210	2890
0	6424	4210	2880
0	6430	4210	2870
0	6436	4210	2860
0	6442	4210	2850
0	6448	4210	2840
0	6454	4210	2830
0	6460	4210	2820
0	6466	4210	2810
0	6472	4210	2800
0	6478	4210	2790
0	6484	4210	2780
0	6490	4210	2770
0	6496	4210	2760
0	6502	4210	2750
0	6508	4210	2740
0	6514	4210	2730
0	6520	4210	2720
0	6526	4210	2710
0	6532	4210	2700
0	6538	4210	2690
0	6544	4210	2680
0	6550	4210	2670
0	6556	4210	2660
0	6562	4210	2650
0	6568	4210	2640
0	6574	4210	2630
0	6580	4210	2620
0	6586	4210	2610
0	6592	4210	2600
0	6598	4210	2590
0	6604	4210	2580
0	6610	4210	2570
0	6616	4210	2560
0	6622	4210	2550
0	6628	4210	2540
0	6634	4210	2530
0	6640	4210	2520
0	6646	4210	2510
0	6652	4210	2500
0	6658	4210	2490
0	6664	4210	2480
0	6670	4210	2470
0	6676	4210	2460
0	6682	4210	2450
0	6688	4210	2440
0	6694	4210	2430
0	6700	4210	2420
0	6706	4210	2410
0	6712	4210	2400
0	6718	4210	2390
0	6724	4210	2380
0	6730	4210	2370
0	6736	4210	2360
0	6742	4210	2350
0	6748	4210	2340
0	6754	4210	2330
0	6760	4210	2320
0	6766	4210	2310
0	6772	4210	2300
0	6778	4210	2290
0	6784	4210	2280
0	6790	4210	2270
0	6796	4210	2260
0	6802	4210	2250
0	6808	4210	2240
0	6814	4210	2230
0	6820	4210	2220
0	6826	4210	2210
0	6832	4210	2200
0	6838	4210	2190
0	6844	4210	2180
0	6850	4210	2170
0	6856	4210	2160
0	6862	4210	2150
0	6868	4210	2140
0	6874	4210	2130
0	6880	4210	2120
0	6886	4210	2110
0	6892	4210	2100
0	6898	4210	2090
0	6904	4210	2080
0	6910	4210	2070
0	6916	4210	2060
0	6922	4210	2050
0	6928	4210	2040
0	6934	4210	2030
0	6940	4210	2020
0	6946	4210	2010
0	6952	4210	2000
0	6958	4210	1990
0	6964	4210	1980
0	6970	4210	1970
0	6976	4210	1960
0	6982	4210	1950
0	6988	4210	1940
0	6994	4210	1930
0	7000	4210	1920
0	7006	4210	1910
0	7012	4210	1900
0	7018	4210	1890
0	7024	4210	1880
0	7030	4210	1870
0	7036	4210	1860
0	7042	4210	1850
0	7048	4210	1840
0	7054	4210	1830
0	7060	4210	1820
0	7066	4210	1810
0	7072	4210	1800
0	7078	4210	1790
0	7084	4210	1780
0	7090	4210	1770
0	7096	4210	1760
0	7102	4210	1750
0	7108	4210	1740
0	7114	4210	1730
0	7120	4210	1720
0	7126	4210	1710
0	7132	4210	1700
0	7138	4210	1690
0	7144	4210	1680
0	7150	4210	1670
0	7156	4210	1660
0	7162	4210	1650
0	7168	4210	1640
0	7174	4210	1630
0	7180	4210	1620
0	7186	4210	1610
0	7192	4210	1600
0	7198	4210	1590
0	7204	4210	1580
0	7210	4210	1570
0	7216	4210	1560
0	7222	4210	1550
0	7228	4210	1540
0	7234	4210	1530
0	7240	4210	1520
0	7246	4210	1510
0	7252	4210	1500
0	7258	4210	1490
0	7264	4210	1480
0	7270	4210	1470
0	7276	4210	1460
0	7282	4210	1450
0	7288	4210	1440
0	7294	4210	1430
0	7300	4210	1420
0	7306	4210	1410
0	7312	4210	1400
0	7318	4210	1390
0	7324	4210	1380
0	7330	4210	1370
0	7336	4210	1360
0	7342	4210	1350
0	7348	4210	1340
0	7354	4210	1330
0	7360	4210	1320
0	7366	4210	1310
0	7372	4210	1300
0	7378	4210	1290
0	7384	4210	1280
0	7390	4210	1270
0	7396	4210	1260
0	7402	4210	1250
0	7408	4210	1240
0	7414	4210	1230
0	7420	4210	1220
0	7426	4210	1210
0	7432	4210	1200
0	7438	4210	1190
0	7444	4210	1180
0	7450	4210	1170
0	7456	4210	1160
0	7462	4210	1150
0	7468	4210	1140
0	7474	4210	1130
0	7480	4210	1120
0	7486	4210	1110
0	7492	4210	1100
0	7498	4210	1090
0	7504	4210	1080
0	7510	4210	1070
0	7516	4210	1060
0	7522	4210	1050
0	7528	4210	1040
0	7534	4210	1030
0	7540	4210	1020
0	7546	4210	1010
0	7552	4210	1000
0	7558	4210	990
0	7564	4210	980
0	7570	4210	970
0	7576	4210	960
0	7582	4210	950
0	7588	4210	940
0	7594	4210	930
0	7600	4210	920
0	7606	4210	910
0	7612	4210	900
0	7618	4210	890
0	7624	4210	880
0	7630	4210	870
0	7636	4210	860
0	7642	4210	850
0	7648	4210	840
0	7654	4210	830
0	7660	4210	820
0	7666	4210	810
0	7678	4218	808
0	7703	4228	808
0	7728	4238	808
0	7753	4248	808
0	7778	4258	808
0	7803	4268	808
0	7828	4278	808
0	7853	4288	808
0	7878	4298	808
0	7903	4308	808
0	7928	4318	808
0	7953	4328	808
0	7978	4338	808
0	8003	4348	808
0	8028	4358	808
0	8053	4368	808
0	8078	4378	808
0	8103	4388	808
0	8129	4398	808
0	8153	4408	808
0	8177	4418	808
0	8201	4428	808
0	8226	4438	808
0	8250	4448	808
0	8274	4458	808
0	8298	4468	808
0	8322	4478	808
0	8346	4488	808
0	8370	4498	808
0	8394	4508	808
0	8418	4518	808
0	8442	4528	808
0	8466	4538	808
0	8490	4548	808
0	8514	4558	808
0	8538	4568	808
0	8562	4578	808
0	8586	4588	808
0	8610	4598	808
0	8634	4608	808
0	8658	4618	808
0	8682	4628	808
0	8706	4638	808
0	8730	4648	808
0	8754	4658	808
0	8775	4668	808
0	8796	4678	808
0	8819	4688	808
0	8840	4698	808
0	8861	4708	808
0	8882	4718	808
0	8903	4728	808
0	8924	4738	808
0	8945	4748	808
0	8966	4758	808
0	8987	4768	808
0	9008	4778	808
0	9029	4788	808
0	9050	4798	808
0	9071	4808	808
0	9092	4818	808
0	9113	4828	808
0	9134	4838	808
0	9155	4848	808
0	9176	4858	808
0	9197	4868	808
0	9218	4878	808
0	9239	4888	808
0	9260	4898	808
0	9281	4908	808
0	9302	4918	808
0	9323	4928	808
0	9346	4938	808
0	9367	4948	808
0	9388	4958	808
0	9409	4968	808
0	9430	4978	808
0	9451	4988	808
0	9472	4998	808
0	9493	5008	808
0	9514	5018	808
0	9535	5028	808
0	9556	5038	808
0	9577	5048	808
0	9598	5058	808
0	9619	5068	808
0	9640	5078	808
0	9661	5088	808
0	9682	5098	808
0	9703	5108	808
0	9724	5118	808
0	9745	5128	808
0	9766	5138	808
0	9787	5148	808
0	9808	5158	808
0	9829	5168	808
0	9850	5178	808
0	9871	5188	808
0	9892	5198	808
0	9913	5208	808
0	9934	5218	808
0	9955	5228	808
0	9976	5238	808
0	9997	5248	808
0	10018	5258	808
0	10039	5268	808
0	10060	5278	808
0	10081	5288	808
0	10102	5298	808
0	10123	5308	808
0	10144	5318	808
0	10165	5328	808
0	10186	5338	808
0	10207	5348	808
0	10228	5358	808
0	10249	5368	808
0	10270	5378	808
0	10291	5388	808
0	10312	5398	808
0	10333	5408	808
0	10354	5418	808
0	10375	5428	808
0	10396	5438	808
0	10417	5448	808
0	10438	5458	808
0	12343	7651	2991
0	12349	7651	2981
0	12355	7651	2971
0	12361	7651	2961
0	12367	7651	2951
0	12373	7651	2941
0	12379	7651	2931
0	12385	7651	2921
0	12391	7651	2911
0	12397	7651	2901
0	12403	7651	2891
0	12409	7651	2881
0	12415	7651	2871
0	12421	7651	2861
0	12427	7651	2851
0	12433	7651	2841
0	12439	7651	2831
0	12445	7651	2821
0	12451	7651	2811
0	12457	7651	2801
0	12463	7651	2791
0	12469	7651	2781
0	12475	7651	2771
0	12481	7651	2761
0	12487	7651	2751
0	12493	7651	2741
0	12499	7651	2731
0	12505	7651	2721
0	12511	7651	2711
0	12517	7651	2701
0	12523	7651	2691
0	12529	7651	2681
0	12535	7651	2671
0	12541	7651	2661
0	12547	7651	2651
0	12553	7651	2641
0	12559	7651	2631
0	12565	7651	2621
0	12571	7651	2611
0	12577	7651	2601
0	12583	7651	2591
0	12589	7651	2581
0	12595	7651	2571
0	12601	7651	2561
0	12607	7651	2551
0	12613	7651	2541
0	12619	7651	2531
0	12625	7651	2521
0	12631	7651	2511
0	12637	7651	2501
0	12643	7651	2491
0	12649	7651	2481
0	12655	7651	2471
0	12661	7651	2461
0	12667	7651	2451
0	12673	7651	2441
0	12679	7651	2431
0	12685	7651	2421
0	12691	7651	2411
0	12697	7651	2401
0	12703	7651	2391
0	12709	7651	2381
0	12715	7651	2371
0	12721	7651	2361
0	12727	7651	2351
0	12733	7651	2341
0	12739	7651	2331
0	12745	7651	2321
0	12751	7651	2311
0	12757	7651	2301
0	12763	7651	2291
0	12769	7651	2281
0	12775	7651	2271
0	12781	7651	2261
0	12787	7651	2251
0	12793	7651	2241
0	12799	7651	2231
0	12805	7651	2221
0	12811	7651	2211
0	12817	7651	2201
0	12823	7651	2191
0	12829	7651	1521
0	12835	7651	1511
0	12841	7651	1501
0	12847	7651	1491
0	12853	7651	1481
0	12859	7651	1471
0	12865	7651	1461
0	12871	7651	1451
0	12877	7651	1441
0	12883	7651	1431
0	12889	7651	1421
0	12895	7651	1411
0	12901	7651	1401
0	12907	7651	1391
0	12913	7651	1381
0	12919	7651	1371
0	12925	7651	1361
0	12931	7651	1351
0	12937	7651	1341
0	12943	7651	1331
0	12949	7651	1321
0	12955	7651	1311
0	12961	7651	1301
0	12967	7651	1291
0	12973	7651	1281
0	12979	7651	1271
0	31877	16688	6128
0	31884	16688	6118
0	31890	16688	6108
0	31896	16688	6098
0	31902	16688	6088
0	31908	16688	6078
0	31914	16688	6068
0	31920	16688	6058
0	31926	16688	6048
0	31932	16688	6038
0	31938	16688	6028
0	31944	16688	6018
0	31950	16688	6008
0	31956	16688	5998
0	31962	16688	5988
0	31968	16688	5978
0	31974	16688	5968
0	31980	16688	5958
0	31986	16688	5948
0	31992	16688	5938
0	31998	16688	5928
0	32004	16688	5918
0	32010	16688	5908
0	32016	16688	5898
0	32022	16688	5888
0	32028	16688	5878
0	32034	16688	5868
0	32040	16688	5858
0	32046	16688	5848
0	32052	16688	5838
0	32058	16688	5828
0	32064	16688	5818
0	32070	16688	5808
0	32076	16688	5798
0	32082	16688	5788
0	32088	16688	5778
0	32094	16688	5768
0	32100	16688	5758
0	32106	16688	5748
0	32112	16688	5738
0	32118	16688	5728
0	32124	16688	5718
0	32130	16688	5708
0	32136	16688	5698
0	32142	16688	5688
0	32148	16688	5678
0	32154	16688	5668
0	32160	16688	5658
0	32166	16688	5648
0	32172	16688	5638
0	32178	16688	5628
0	32184	16688	5618
0	32190	16688	5608
0	32196	16688	5598
0	32202	16688	5588
0	32208	16688	5578
0	32214	16688	5568
0	32220	16688	5558
0	32226	16688	5548
0	32232	16688	5538
0	32238	16688	5528
0	32244	16688	5518
0	32250	16688	5508
0	32256	16688	5498
0	32262	16688	5488
0	32268	16688	5478
0	32274	16688	5468
0	32280	16688	5458
0	32286	16688	5448
0	32292	16688	5438
0	32298	16688	5428
0	32304	16688	5418
0	32310	16688	5408
0	32316	16688	5398
0	32322	16688	5388
0	32328	16688	5378
0	32334	16688	5368
0	32340	16688	5358
0	32346	16688	5348
0	32352	16688	5338
0	32358	16688	5328
0	32364	16688	5318
0	32370	16688	5308
0	32376	16688	5298
0	32382	16688	5288
0	32388	16688	5278
0	32394	16688	5268
0	32400	16688	5258
0	32406	16688	5248
0	32412	16688	5238
0	32418	16688	5228
0	32424	16688	5218
0	32430	16688	5208
0	32436	16688	5198
0	32442	16688	5188
0	32448	16688	5178
0	32454	16688	5168
0	32460	16688	5158
0	32466	16688	5148
0	32472	16688	5138
0	32478	16688	5128
0	32484	16688	5118
0	32490	16688	5108
0	32496	16688	5098
0	32502	16688	5088
0	32508	16688	5078
0	32514	16688	5068
0	32520	16688	5058
0	32526	16688	5048
0	32532	16688	5038
0	32538	16688	5028
0	32544	16688	5018
0	32550	16688	5008
0	32556	16688	4998
0	32562	16688	4988
0	32568	16688	4978
0	32574	16688	4968
0	32580	16688	4958
0	32586	16688	4948
0	32592	16688	4938
0	32598	16688	4928
0	32604	16688	4918
0	32610	16688	4908
0	32616	16688	4898
0	32622	16688	4888
0	32628	16688	4878
0	32634	16688	4868
0	32640	16688	4858
0	32646	16688	4848
0	32652	16688	4838
0	32658	16688	4828
0	32664	16688	4818
0	32670	16688	4808
0	32676	16688	4798
0	32682	16688	4788
0	32688	16688	4778
0	32694	16688	4768
0	32700	16688	4758
0	32706	16688	4748
0	32712	16688	4738
0	32718	16688	4728
0	32724	16688	4718
0	32730	16688	4708
0	32736	16688	4698
0	32742	16688	4688
0	32748	16688	4678
0	32754	16688	4668
0	32760	16688	4658
0	32766	16688	4648
0	32772	16688	4638
0	32778	16688	4628
0	32784	16688	4618
0	32790	16688	4608
0	32796	16688	4598
0	32802	16688	4588
0	32808	16688	4578
0	32814	16688	4568
0	32820	16688	4558
0	32826	16688	4548
0	32832	16688	4538
0	32838	16688	4528
0	32844	16688	4518
0	32850	16688	4508
0	32856	16688	4498
0	32862	16688	4488
0	32868	16688	4478
0	32874	16688	4468
0	32880	16688	4458
0	32886	16688	4448
0	32892	16688	4438
0	32898	16688	4428
0	32904	16688	4418
0	32910	16688	4408
0	32916	16688	4398
0	32922	16688	4388
0	32928	16688	4378
0	32934	16688	4368
0	32940	16688	4358
0	32946	16688	4348
0	32952	16688	4338
0	32958	16688	4328
0	32964	16688	4318
0	32970	16688	4308
0	32976	16688	4298
0	32982	16688	4288
0	32988	16688	4278
0	32994	16688	4268
0	33000	16688	4258
0	33006	16688	4248
0	33012	16688	4238
0	33018	16688	4228
0	33024	16688	4218
0	33030	16688	4208
0	33036	16688	4198
0	33042	16688	4188
0	33048	16688	4178
0	33054	16688	4168
0	33060	16688	4158
0	33066	16688	4148
0	33072	16688	4138
0	33078	16688	4128
0	33084	16688	4118
0	33090	16688	4108
0	33096	16688	4098
0	33102	16688	4088
0	33108	16688	4078
0	33114	16688	4068
0	33120	16688	4058
0	33126	16688	4048
0	33132	16688	4038
0	33138	16688	4028
0	33144	16688	4018
0	33150	16688	4008
0	33156	16688	3998
0	33162	16688	3988
0	33168	16688	3978
0	33174	16688	3968
0	33180	16688	3958
0	33186	16688	3948
0	33192	16688	3938
0	33198	16688	3928
0	33204	16688	3918
0	33210	16688	3908
0	33216	16688	3898
0	33222	16688	3888
0	33228	16688	3878
0	33234	16688	3868
0	33240	16688	3858
0	33246	16688	3848
0	33252	16688	3838
0	33258	16688	3828
0	33264	16688	3818
0	33270	16688	3808
0	33276	16688	3798
0	33282	16688	3788
0	33288	16688	3778
0	33294	16688	3768
0	33300	16688	3758
0	33306	16688	3748
0	33312	16688	3738
0	33318	16688	3728
0	33324	16688	3718
0	33330	16688	3708
0	33336	16688	3698
0	33342	16688	3688
0	33348	16688	3678
0	33354	16688	3668
0	33360	16688	3658
0	33366	16688	3648
0	33372	16688	3638
0	33378	16688	3628
0	33384	16688	3618
0	33390	16688	3608
0	33396	16688	3598
0	33402	16688	3588
0	33408	16688	3578
0	33414	16688	3568
0	33420	16688	3558
0	33426	16688	3548
0	33432	16688	3538
0	33438	16688	3528
0	33444	16688	3518
0	33450	16688	3508
0	33456	16688	3498
0	33462	16688	3488
0	33468	16688	3478
0	33474	16688	3468
0	33480	16688	3458
0	33486	16688	3448
0	33492	16688	3438
0	33498	16688	3428
0	33504	16688	3418
0	33510	16688	3408
0	33516	16688	3398
0	33522	16688	3388
0	33528	16688	3378
0	33534	16688	3368
0	33540	16688	3358
0	33546	16688	3348
0	33552	16688	3338
0	33558	16688	3328
0	33564	16688	3318
0	33570	16688	3308
0	33576	16688	3298
0	33582	16688	3288
0	33588	16688	3278
0	33594	16688	3268
0	33600	16688	3258
0	33606	16688	3248
0	33612	16688	3238
0	33618	16688	3228
0	33624	16688	3218
0	33630	16688	3208
0	33636	16688	3198
0	33642	16688	3188
0	33648	16688	3178
0	33654	16688	3168
0	33660	16688	3158
0	33666	16688	3148
0	33672	16688	3138
0	33678	16688	3128
0	33684	16688	3118
0	33690	16688	3108
0	33696	16688	3098
0	33702	16688	3088
0	33708	16688	3078
0	33714	16688	3068
0	33720	16688	3058
0	33726	16688	3048
0	33732	16688	3038
0	33738	16688	3028
0	33744	16688	3018
0	33750	16688	3008
0	33756	16688	2998
0	33762	16688	2988
0	33768	16688	2978
0	33774	16688	2968
0	33780	16688	2958
0	33786	16688	2948
0	33792	16688	2938
0	33798	16688	2928
0	33804	16688	2918
0	33810	16688	2908
0	33816	16688	2898
0	33822	16688	2888
0	33828	16688	2878
0	33834	16688	2868
0	33840	16688	2858
0	33846	16688	2848
0	33852	16688	2838
0	33858	16688	2828
0	33864	16688	2818
0	33870	16688	2808
0	33876	16688	2798
0	33882	16688	2788
0	33888	16688	2778
0	33894	16688	2768
0	33900	16688	2758
0	33906	16688	2748
0	33912	16688	2738
0	33918	16688	2728
0	33924	16688	2718
0	33930	16688	2708
0	33936	16688	2698
0	33942	16688	2688
0	33948	16688	2678
0	33954	16688	2668
0	33960	16688	2658
0	33966	16688	2648
0	33972	16688	2638
0	33978	16688	2628
0	33984	16688	2618
0	33990	16688	2608
0	33996	16688	2598
0	34002	16688	2588
0	34008	16688	2578
0	34014	16688	2568
0	34020	16688	2558
0	34026	16688	2548
0	34032	16688	2538
0	34038	16688	2528
0	34044	16688	2518
0	34050	16688	2508
0	34056	16688	2498
0	34062	16688	2488
0	34068	16688	2478
0	34074	16688	2468
0	34080	16688	2458
0	34086	16688	2448
0	34092	16688	2438
0	34098	16688	2428
0	34104	16688	2418
0	34110	16688	2408
0	34116	16688	2398
0	34122	16688	2388
0	34128	16688	2378
0	34134	16688	2368
0	34140	16688	2358
0	34146	16688	2348
0	34152	16688	2338
0	34158	16688	2328
0	34164	16688	2318
0	34170	16688	2308
0	34176	16688	2298
0	34182	16688	2288
0	34188	16688	2278
0	34194	16688	2268
0	34200	16688	2258
0	34206	16688	2248
0	34212	16688	2238
0	34218	16688	2228
0	34224	16688	2218
0	34230	16688	2208
0	34236	16688	2198
0	34242	16688	2188
0	34248	16688	2178
0	34254	16688	2168
0	34260	16688	2158
0	34266	16688	2148
0	34272	16688	2138
0	34278	16688	2128
0	34284	16688	2118
0	34290	16688	2108
0	34296	16688	2098
0	34302	16688	2088
0	34308	16688	2078
0	34314	16688	2068
0	34320	16688	2058
0	34326	16688	2048
0	34332	16688	2038
0	34338	16688	2028
0	34344	16688	2018
0	34350	16688	2008
0	34356	16688	1998
0	34362	16688	1988
0	34368	16688	1978
0	34374	16688	1968
0	34380	16688	1958
0	34386	16688	1948
0	34392	16688	1938
0	34398	16688	1928
0	34404	16688	1918
0	34410	16688	1908
0	34416	16688	1898
0	34422	16688	1888
0	34428	16688	1878
0	34434	16688	1868
0	34440	16688	1858
0	34446	16688	1848
0	34452	16688	1838
0	34458	16688	1828
0	34464	16688	1818
0	34470	16688	1808
0	34476	16688	1798
0	34482	16688	1788
0	34488	16688	1778
0	34494	16688	1768
0	34500	16688	1758
0	34506	16688	1748
0	34512	16688	1738
0	34518	16688	1728
0	34524	16688	1718
0	34530	16688	1708
0	34536	16688	1698
0	34542	16688	1688
0	34548	16688	1678
0	34554	16688	1668
0	34560	16688	1658
0	34566	16688	1648
0	34572	16688	1638
0	34578	16688	1628
0	34584	16688	1618
0	34590	16688	1608
0	34596	16688	1598
0	34602	16688	1588
0	34608	16688	1578
0	34614	16688	1568
0	34620	16688	1558
0	34626	16688	1548
0	34632	16688	1538
0	34638	16688	1528
0	34644	16688	1518
0	34650	16688	1508
0	34656	16688	1498
0	34662	16688	1488
0	34668	16688	1478
0	34674	16688	1468
0	34680	16688	1458
0	34686	16688	1448
0	34692	16688	1438
0	34698	16688	1428
0	34704	16688	1418
0	34710	16688	1408
0	34716	16688	1398
0	34722	16688	1388
0	34728	16688	1378
0	34734	16688	1368
0	34740	16688	1358
0	34746	16688	1348
0	34752	16688	1338
0	34758	16688	1328
0	34764	16688	1318
0	34770	16688	1308
0	34776	16688	1298
0	34782	16688	1288
0	34788	16688	1278
0	34794	16688	1268
0	34800	16688	1258
0	34806	16688	1248
0	34812	16688	1238
0	34818	16688	1228
0	34824	16688	1218
0	34830	16688	1208
0	34836	16688	1198
0	34842	16688	1188
0	34848	16688	1178
0	34854	16688	1168
0	34860	16688	1158
0	34866	16688	1148
0	34872	16688	1138
0	34878	16688	1128
0	34884	16688	1118
0	34890	16688	1108
0	34896	16688	1098
0	34902	16688	1088
0	34908	16688	1078
0	34914	16688	1068
0	34920	16688	1058
0	34926	16688	1048
0	34932	16688	1038
0	34938	16688	1028
0	34944	16688	1018
0	34950	16688	1008
0	34956	16688	998
0	34962	16688	988
0	34968	16688	978
0	34974	16688	968
0	34980	16688	958
0	34986	16688	948
0	34992	16688	938
0	34998	16688	928
0	35004	16688	918
0	35010	16688	908
0	35016	16688	898
0	35022	16688	888
0	35028	16688	878
0	35034	16688	868
0	35040	16688	858
0	35046	16688	848
0	35052	16688	838
0	35058	16688	828
0	35064	16688	818
0	35070	16688	808
0	37882	18779	2069
0	37889	18779	2059
0	37895	18779	2049
0	37901	18779	2039
0	37907	18779	2029
0	37913	18779	2019
0	37919	18779	2009
0	37925	18779	1999
0	37931	18779	1989
0	37937	18779	1979
0	37943	18779	1969
0	37949	18779	1959
0	37955	18779	1949
0	37961	18779	1939
0	37967	18779	1929
0	37973	18779	1919
0	37979	18779	1909
0	37985	18779	1899
0	37991	18779	1889
0	37997	18779	1879
0	38003	18779	1869
0	38009	18779	1859
0	38015	18779	1849
0	38021	18779	1839
0	38027	18779	1829
0	38033	18779	1819
0	38039	18779	1809
0	38045	18779	1799
0	38051	18779	1789
0	38057	18779	1779
0	38063	18779	1769
0	38069	18779	1759
0	38075	18779	1749
0	38081	18779	1739
0	38087	18779	1729
0	38093	18779	1719
0	38099	18779	1709
0	38105	18779	1699
0	38111	18779	1689
0	38117	18779	1679
0	38123	18779	1669
0	38129	18779	1659
0	38135	18779	1649
0	38141	18779	1639
0	38147	18779	1629
0	38153	18779	1619
0	38159	18779	1609
0	38165	18779	1599
0	38171	18779	1589
0	38177	18779	1579
0	38183	18779	1569
0	38189	18779	1559
0	38195	18779	1549
0	38201	18779	1539
0	38207	18779	1529
0	38213	18779	1519
0	38219	18779	1509
0	38225	18779	1499
0	38231	18779	1489
0	38237	18779	1479
0	38243	18779	1469
0	38249	18779	1459
0	38255	18779	1449
0	38261	18779	1439
0	38267	18779	1429
0	38273	18779	1419
0	38279	18779	1409
0	38285	18779	1399
0	38291	18779	1389
0	38297	18779	1379
0	38303	18779	1369
0	38309	18779	1359
0	38315	18779	1349
0	38321	18779	1339
0	38327	18779	1329
0	38333	18779	1319
0	38339	18779	1309
0	38345	18779	1299
0	38351	18779	1289
0	38357	18779	1279
0	38363	18779	1269
0	38369	18779	1259
0	38375	18779	1249
0	38381	18779	1239
0	38387	18779	1229
0	38393	18779	1219
0	38399	18779	1209
0	38405	18779	1199
0	38411	18779	1189
0	38417	18779	1179
0	38423	18779	1169
0	38429	18779	1159
0	38435	18779	1149
0	38441	18779	1139
0	38447	18779	1129
0	38453	18779	1119
0	38459	18779	1109
0	38465	18779	1099
0	38471	18779	1089
0	38477	18779	1079
0	38483	18779	1069
0	38489	18779	1059
0	38495	18779	1049
0	38501	18779	1039
0	38507	18779	1029
0	38513	18779	1019
0	38519	18779	1009
0	38525	18779	999
0	38531	18779	989
0	38537	18779	979
0	38543	18779	969
0	38549	18779	959
0	38555	18779	949
0	38561	18779	939
0	38567	18779	929
0	38573	18779	919
0	38579	18779	909
0	38585	18779	899
0	38591	18779	889
0	38597	18779	879
0	38603	18779	869
0	38609	18779	859
0	38615	18779	849
0	38621	18779	839
0	38627	18779	829
0	38633	18779	819
0	38639	18779	809
0	38650	18788	808
0	38662	18798	808
0	38674	18808	808
0	38686	18818	808
0	38700	18828	808
0	38712	18838	808
0	38724	18848	808
0	38736	18858	808
0	38748	18868	808
0	38760	18878	808
0	38772	18888	808
0	38784	18898	808
0	38796	18908	808
0	38808	18918	808
0	38820	18928	808
0	38832	18938	808
0	38844	18948	808
0	38856	18958	808
0	44480	22489	879
0	44486	22489	869
0	44492	22489	859
0	44498	22489	849
0	44504	22489	839
0	44510	22489	829
0	44516	22489	819
0	44522	22489	809
0	44541	22498	808
0	44560	22508	808
0	44579	22518	808
0	44598	22528	808
0	44617	22538	808
0	44636	22548	808
0	44655	22558	808
0	44675	22568	808
0	44694	22578	808
0	44713	22588	808
0	44732	22598	808
0	44751	22608	808
0	44770	22618	808
0	44789	22628	808
0	44808	22638	808
0	44827	22648	808
0	44846	22658	808
0	44865	22668	808
0	48603	24907	9017
0	48610	24907	9007
0	48616	24907	8997
0	48622	24907	8987
0	48628	24907	8977
0	48634	24907	8967
0	48640	24907	8957
0	48646	24907	8947
0	48652	24907	8937
0	48658	24907	8927
0	48664	24907	8917
0	48670	24907	8907
0	48676	24907	8897
0	48682	24907	8887
0	48688	24907	8877
0	48694	24907	8867
0	48700	24907	8857
0	48706	24907	8847
0	48712	24907	8837
0	48718	24907	8827
0	48724	24907	8817
0	48730	24907	8807
0	48736	24907	8797
0	48742	24907	8787
0	48748	24907	8777
0	48754	24907	8767
0	48760	24907	8757
0	48766	24907	8747
0	48772	24907	8737
0	48778	24907	8727
0	48784	24907	8717
0	48790	24907	8707
0	48796	24907	8697
0	48802	24907	8687
0	48808	24907	8677
0	48814	24907	8667
0	48820	24907	8657
0	48826	24907	8647
0	48832	24907	8637
0	48838	24907	8627
0	48844	24907	8617
0	48850	24907	8607
0	48856	24907	8597
0	48862	24907	8587
0	48868	24907	8577
0	48874	24907	8567
0	48880	24907	8557
0	48886	24907	8547
0	48892	24907	8537
0	48898	24907	8527
0	48904	24907	8517
0	48910	24907	8507
0	48916	24907	8497
0	48922	24907	8487
0	48928	24907	8477
0	48934	24907	8467
0	48940	24907	8457
0	48946	24907	8447
0	48952	24907	8437
0	48958	24907	8427
0	48964	24907	8417
0	48970	24907	8407
0	48976	24907	8397
0	48982	24907	8387
0	48988	24907	8377
0	48994	24907	8367
0	49000	24907	8357
0	49006	24907	8347
0	49012	24907	8337
0	49018	24907	8327
0	49024	24907	8317
0	49030	24907	8307
0	49036	24907	8297
0	49042	24907	8287
0	49048	24907	8277
0	49054	24907	8267
0	49060	24907	8257
0	49066	24907	8247
0	49072	24907	8237
0	49078	24907	8227
0	49084	24907	8217
0	49090	24907	8207
0	49096	24907	2227
0	49102	24907	2217
0	49108	24907	2207
0	49114	24907	2197
0	49120	24907	2187
0	49126	24907	2177
0	49132	24907	2167
0	49138	24907	2157
0	49144	24907	2147
0	49150	24907	2137
0	49156	24907	2127
0	49162	24907	2117
0	49168	24907	2107
0	49174	24907	2097
0	49180	24907	2087
0	49186	24907	2077
0	49192	24907	2067
0	49198	24907	2057
0	49204	24907	2047
0	49210	24907	2037
0	49216	24907	2027
0	49222	24907	2017
0	49228	24907	2007
0	49234	24907	1997
0	49240	24907	1987
0	49246	24907	1977
0	49252	24907	1967
0	49258	24907	1957
0	49264	24907	1947
0	49270	24907	1937
0	49276	24907	1927
0	49282	24907	1917
0	49288	24907	1907
0	49294	24907	1897
0	49300	24907	1887
0	49306	24907	1877
0	49312	24907	1867
0	49318	24907	1857
0	49324	24907	1847
0	49330	24907	1837
0	49336	24907	1827
0	49342	24907	1817
0	49348	24907	1807
0	49354	24907	1797
0	49360	24907	1787
0	49366	24907	1777
0	49372	24907	1767
0	49378	24907	1757
0	49384	24907	1747
0	49390	24907	1737
0	49396	24907	1727
0	49402	24907	1717
0	49408	24907	1707
0	49414	24907	1697
0	49420	24907	1687
0	49426	24907	1677
0	49432	24907	1667
0	49438	24907	1657
0	49444	24907	1647
0	49450	24907	1637
0	49456	24907	1627
0	49462	24907	1617
0	49468	24907	1607
0	49474	24907	1597
0	49480	24907	1587
0	49486	24907	1577
0	49492	24907	1567
0	49498	24907	1557
0	49504	24907	1547
0	49510	24907	1537
0	49516	24907	1527
0	49522	24907	1517
0	49528	24907	1507
0	49534	24907	1497
0	49540	24907	1487
0	49546	24907	1477
0	49552	24907	1467
0	49558	24907	1457
0	49564	24907	1447
0	49570	24907	1437
0	49576	24907	1427
0	49582	24907	1417
0	49588	24907	1407
0	49594	24907	1397
0	49600	24907	1387
0	49606	24907	1377
0	49612	24907	1367
0	49618	24907	1357
0	49624	24907	1347
0	49630	24907	1337
0	49636	24907	1327
0	49642	24907	1317
0	49648	24907	1307
0	49654	24907	1297
0	49660	24907	1287
0	49666	24907	1277
0	49672	24907	1267
0	49678	24907	1257
0	49684	24907	1247
0	49690	24907	1237
0	49696	24907	1227
0	49702	24907	1217
0	49708	24907	1207
0	49714	24907	1197
0	49720	24907	1187
0	49726	24907	1177
0	49732	24907	1167
0	49738	24907	1157
0	49744	24907	1147
0	49750	24907	1137
0	49756	24907	1127
0	49762	24907	1117
0	49768	24907	1107
0	49774	24907	1097
0	49780	24907	1087
0	49786	24907	1077
0	49792	24907	1067
0	49798	24907	1057
0	49804	24907	1047
0	49810	24907	1037
0	49816	24907	1027
0	49822	24907	1017
0	49828	24907	1007
0	49834	24907	997
0	49840	24907	987
0	49846	24907	977
0	49852	24907	967
0	49858	24907	957
0	49864	24907	947
0	49870	24907	937
0	49876	24907	927
0	49882	24907	917
0	49888	24907	907
0	49894	24907	897
0	49900	24907	887
0	49906	24907	877
0	49912	24907	867
0	49918	24907	857
0	49924	24907	847
0	49930	24907	837
0	49936	24907	827
0	49960	24914	824
0	49986	24924	824
0	50010	24934	824
0	50033	24944	824
0	50056	24954	824
0	50079	24964	824
0	50102	24974	824
0	50125	24984	824
0	50148	24994	824
0	50171	25004	824
0	50194	25014	824
0	50217	25024	824
0	50240	25034	824
0	50263	25044	824
0	50286	25054	824
0	50309	25064	824
0	50332	25074	824
0	50355	25084	824
0	50378	25094	824
0	50401	25104	824
0	50424	25114	824
0	50447	25124	824
0	50470	25134	824
0	50493	25144	824
0	50516	25154	824
0	50539	25164	824
0	50562	25174	824
0	50585	25184	824
0	50608	25194	824
0	50631	25204	824
0	50655	25214	824
0	50678	25224	824
0	52414	26094	1684
0	52420	26094	1674
0	52426	26094	1664
0	52432	26094	1654
0	52438	26094	1644
0	52444	26094	1634
0	52450	26094	1624
0	52456	26094	1614
0	52462	26094	1604
0	52468	26094	1594
0	52474	26094	1584
0	52480	26094	1574
0	52486	26094	1564
0	52492	26094	1554
0	52498	26094	1544
0	52504	26094	1534
0	52510	26094	1524
0	52516	26094	1514
0	52522	26094	1504
0	52528	26094	1494
0	52534	26094	1484
0	52540	26094	1474
0	52546	26094	1464
0	52552	26094	1454
0	52558	26094	1444
0	52564	26094	1434
0	52570	26094	1424
0	52576	26094	1414
0	52582	26094	1404
0	52588	26094	1394
0	52594	26094	1384
0	52600	26094	1374
0	52606	26094	1364
0	52612	26094	1354
0	52618	26094	1344
0	52624	26094	1334
0	52630	26094	1324
0	52636	26094	1314
0	52642	26094	1304
0	52648	26094	1294
0	52654	26094	1284
0	52660	26094	1274
0	52666	26094	1264
0	52672	26094	1254
0	52678	26094	1244
0	52684	26094	1234
0	52690	26094	1224
0	52696	26094	1214
0	52702	26094	1204
0	52708	26094	1194
0	52714	26094	1184
0	52720	26094	1174
0	52726	26094	1164
0	52732	26094	1154
0	52738	26094	1144
0	52744	26094	1134
0	52750	26094	1124
0	52756	26094	1114
0	52762	26094	1104
0	52768	26094	1094
0	52774	26094	1084
0	52780	26094	1074
0	52786	26094	1064
0	52792	26094	1054
0	52798	26094	1044
0	52804	26094	1034
0	52810	26094	1024
0	52816	26094	1014
0	52822	26094	1004
0	52828	26094	994
0	52834	26094	984
0	52840	26094	974
0	52846	26094	964
0	52852	26094	954
0	52858	26094	944
0	52864	26094	934
0	52870	26094	924
0	52876	26094	914
0	52882	26094	904
0	52888	26094	894
0	52894	26094	884
0	52900	26094	874
0	52906	26094	864
0	52912	26094	854
0	52936	26104	854
0	52960	26114	854
0	52984	26124	854
0	53008	26134	854
0	53032	26144	854
0	53056	26154	854
0	53080	26164	854
0	53104	26174	854
0	53128	26184	854
0	53152	26194	854
0	53176	26204	854
0	53200	26214	854
0	53226	26224	854
0	53250	26234	854
0	53274	26244	854
0	53298	26254	854
0	53322	26264	854
0	53346	26274	854
0	53370	26284	854
0	53394	26294	854
0	53418	26304	854
0	53442	26314	854
0	53466	26324	854
0	53491	26334	854
0	53515	26344	854
0	53539	26354	854
0	53563	26364	854
0	53587	26374	854
0	53611	26384	854
0	53635	26394	854
0	53659	26404	854
0	53683	26414	854
0	53707	26424	854
0	53731	26434	854
0	53755	26444	854
0	53779	26454	854
0	53803	26464	854
0	53829	26474	854
0	53854	26484	854
0	53879	26494	854
0	53904	26504	854
0	53929	26514	854
0	53954	26524	854
0	53979	26534	854
0	54004	26544	854
0	54029	26554	854
0	54054	26564	854
0	54079	26574	854
0	54104	26584	854
0	54129	26594	854
0	54154	26604	854
0	54179	26614	854
0	54204	26624	854
0	54229	26634	854
0	54254	26644	854
0	54279	26654	854
0	54304	26664	854
0	54329	26674	854
0	54354	26684	854
0	54379	26694	854
0	54404	26704	854
0	54431	26714	854
0	54456	26724	854
0	54481	26734	854
0	54506	26744	854
0	54531	26754	854
0	54556	26764	854
0	54581	26774	854
0	54606	26784	854
0	54631	26794	854
0	54656	26804	854
0	54684	26814	854
0	54710	26824	854
0	54737	26834	854
0	54763	26844	854
0	54789	26854	854
0	54815	26864	854
0	54841	26874	854
0	54867	26884	854
0	54893	26894	854
0	54919	26904	854
0	54945	26914	854
0	54971	26924	854
0	54997	26934	854
0	55023	26944	854
0	55049	26954	854
0	55075	26964	854
0	55101	26974	854
0	55127	26984	854
0	55153	26994	854
0	55179	27004	854
0	55205	27014	854
0	55231	27024	854
0	55257	27034	854
0	55283	27044	854
0	55309	27054	854
0	55335	27064	854
0	55361	27074	854
0	55387	27084	854
0	55413	27094	854
0	55439	27104	854
0	55465	27114	854
0	55491	27124	854
0	55517	27134	854
0	55543	27144	854
0	55570	27154	854
0	55595	27164	854
0	55620	27174	854
0	55645	27184	854
0	55670	27194	854
0	55695	27204	854
0	55720	27214	854
0	55745	27224	854
0	55770	27234	854
0	55795	27244	854
0	55820	27254	854
0	55845	27264	854
0	55870	27274	854
0	55895	27284	854
0	55920	27294	854
0	55945	27304	854
0	55970	27314	854
0	55995	27324	854
0	56020	27334	854
0	56045	27344	854
0	56070	27354	854
0	56095	27364	854
0	56120	27374	854
0	56145	27384	854
0	56170	27394	854
0	56192	27404	854
0	56213	27414	854
0	56234	27424	854
0	56255	27434	854
0	56276	27444	854
0	56297	27454	854
0	56318	27464	854
0	56339	27474	854
0	56360	27484	854
0	56381	27494	854
0	56402	27504	854
0	56423	27514	854
0	56444	27524	854
0	56465	27534	854
0	56486	27544	854
0	56507	27554	854
0	56529	27564	854
0	56549	27574	854
0	56569	27584	854
0	56589	27594	854
0	56609	27604	854
0	56629	27614	854
0	56649	27624	854
0	56669	27634	854
0	56689	27644	854
0	56712	27654	854
0	56731	27664	854
0	56752	27674	854
0	56772	27684	854
0	56792	27694	854
0	56812	27704	854
0	56832	27714	854
0	56852	27724	854
0	56872	27734	854
0	56892	27744	854
0	56912	27754	854
0	56933	27764	854
0	56945	27774	854
0	56957	27784	854
0	56969	27794	854
0	56981	27804	854
0	56993	27814	854
0	57005	27824	854
0	57017	27834	854
0	57029	27844	854
0	57041	27854	854
0	57053	27864	854
0	57065	27874	854
0	57077	27884	854
0	57089	27894	854
0	57101	27904	854
0	57113	27914	854
0	57125	27924	854
0	57137	27934	854
0	57149	27944	854
0	57161	27954	854
0	57173	27964	854
0	57185	27974	854
0	57197	27984	854
0	57209	27994	854
0	57221	28004	854
0	57233	28014	854
0	57245	28024	854
0	57257	28034	854
0	57269	28044	854
0	57281	28054	854
0	57293	28064	854
0	57305	28074	854
0	57317	28084	854
0	57329	28094	854
0	57341	28104	854
0	57353	28114	854
0	57365	28124	854
0	57377	28134	854
0	57389	28144	854
0	57401	28154	854
0	57413	28164	854
0	57425	28174	854
0	57437	28184	854
0	57463	28194	854
0	57489	28204	854
0	57515	28214	854
0	57541	28224	854
0	57569	28234	854
0	57596	28244	854
0	64481	32336	2306
0	64489	32336	2296
0	64495	32336	2286
0	64501	32336	2276
0	64507	32336	2266
0	64513	32336	2256
0	64519	32336	2246
0	64525	32336	2236
0	64531	32336	2226
0	64537	32336	2216
0	64543	32336	2206
0	64549	32336	2196
0	64555	32336	2186
0	64561	32336	2176
0	64567	32336	2166
0	64573	32336	2156
0	64579	32336	2146
0	64585	32336	2136
0	64591	32336	2126
0	64597	32336	2116
0	64603	32336	2106
0	64609	32336	2096
0	64615	32336	2086
0	64621	32336	2076
0	64627	32336	2066
0	64633	32336	2056
0	64639	32336	2046
0	64645	32336	2036
0	64651	32336	2026
0	64657	32336	2016
0	64663	32336	2006
0	64669	32336	1996
0	64675	32336	1986
0	64681	32336	1976
0	64687	32336	1966
0	64693	32336	1956
0	64699	32336	1946
0	64705	32336	1936
0	64711	32336	1926
0	64717	32336	1916
0	64723	32336	1906
0	64729	32336	1896
0	64735	32336	1886
0	64741	32336	1876
0	64747	32336	1866
0	64753	32336	1856
0	64759	32336	1846
0	64765	32336	1836
0	64771	32336	1826
0	64777	32336	1816
0	64783	32336	1806
0	64789	32336	1796
0	64795	32336	1786
0	64801	32336	1776
0	64807	32336	1766
0	64813	32336	1756
0	64819	32336	1746
0	64825	32336	1736
0	64831	32336	1726
0	64837	32336	1716
0	64843	32336	1706
0	64849	32336	1696
0	64855	32336	1686
0	64861	32336	1676
0	64867	32336	1666
0	64873	32336	1656
0	64879	32336	1646
0	64885	32336	1636
0	64891	32336	1626
0	64897	32336	1616
0	64903	32336	1606
0	64909	32336	1596
0	64915	32336	1586
0	64921	32336	1576
0	64927	32336	1566
0	64933	32336	1556
0	64939	32336	1546
0	64945	32336	1536
0	64951	32336	1526
0	64957	32336	1516
0	64963	32336	1506
0	64969	32336	1496
0	64975	32336	1486
0	64981	32336	1476
0	64987	32336	1466
0	64993	32336	1456
0	64999	32336	1446
0	65005	32336	1436
0	65011	32336	1426
0	65017	32336	1416
0	65023	32336	1406
0	65029	32336	1396
0	65035	32336	1386
0	65041	32336	1376
0	65047	32336	1366
0	65053	32336	1356
0	65059	32336	1346
0	65065	32336	1336
0	65071	32336	1326
0	65077	32336	1316
0	65083	32336	1306
0	65089	32336	1296
0	65095	32336	1286
0	65101	32336	1276
0	65107	32336	1266
0	65113	32336	1256
0	65119	32336	1246
0	65125	32336	1236
0	65131	32336	1226
0	65137	32336	1216
0	65143	32336	1206
0	65149	32336	1196
0	65155	32336	1186
0	65161	32336	1176
0	65167	32336	1166
0	65173	32336	1156
0	65179	32336	1146
0	65185	32336	1136
0	65191	32336	1126
0	65197	32336	1116
0	65203	32336	1106
0	65209	32336	1096
0	65215	32336	1086
0	65221	32336	1076
0	65227	32336	1066
0	65233	32336	1056
0	65239	32336	1046
0	65245	32336	1036
0	65251	32336	1026
0	65257	32336	1016
0	65263	32336	1006
0	65269	32336	996
0	65275	32336	986
0	65281	32336	976
0	65287	32336	966
0	65293	32336	956
0	65299	32336	946
0	65305	32336	936
0	65311	32336	926
0	65317	32336	916
0	65323	32336	906
0	65329	32336	896
0	65335	32336	886
0	65341	32336	876
0	65347	32336	866
0	65353	32336	856
0	65359	32336	846
0	65365	32336	836
0	65371	32336	826
0	65377	32336	816
0	65386	32338	808
0	65417	32348	808
0	65448	32358	808
0	65479	32368	808
0	65510	32378	808
0	65542	32388	808
0	65573	32398	808
0	65604	32408	808
0	65635	32418	808
0	65666	32428	808
0	65697	32438	808
0	65728	32448	808
0	65759	32458	808
0	65790	32468	808
0	65821	32478	808
0	65852	32488	808
0	65883	32498	808
0	65914	32508	808
0	65945	32518	808
0	65976	32528	808
0	66007	32538	808
0	66038	32548	808
0	66069	32558	808
0	66100	32568	808
0	66131	32578	808
0	66162	32588	808
0	66193	32598	808
0	66224	32608	808
0	66592	33126	1316
0	66601	33126	1306
0	66607	33126	1296
0	66613	33126	1286
0	66619	33126	1276
0	66625	33126	1266
0	66631	33126	1256
0	66637	33126	1246
0	66643	33126	1236
0	66649	33126	1226
0	66655	33126	1216
0	66661	33126	1206
0	66667	33126	1196
0	66673	33126	1186
0	66679	33126	1176
0	66685	33126	1166
0	66691	33126	1156
0	66697	33126	1146
0	66703	33126	1136
0	66709	33126	1126
0	66715	33126	1116
0	66721	33126	1106
0	66727	33126	1096
0	66733	33126	1086
0	66739	33126	1076
0	66745	33126	1066
0	66751	33126	1056
0	66757	33126	1046
0	66763	33126	1036
0	66769	33126	1026
0	66775	33126	1016
0	66781	33126	1006
0	66787	33126	996
0	66793	33126	986
0	66799	33126	976
0	66805	33126	966
0	66811	33126	956
0	66817	33126	946
0	66823	33126	936
0	66829	33126	926
0	66835	33126	916
0	66841	33126	906
0	66847	33126	896
0	66853	33126	886
0	66859	33126	876
0	66865	33126	866
0	66871	33126	856
0	66877	33126	846
0	66883	33126	836
0	66889	33126	826
0	66895	33126	816
0	66904	33128	808
0	66918	33138	808
0	66932	33148	808
0	66946	33158	808
0	66960	33168	808
0	66974	33178	808
0	66988	33188	808
0	67002	33198	808
0	67016	33208	808
0	67030	33218	808
0	67044	33228	808
0	67058	33238	808
0	67072	33248	808
0	67086	33258	808
0	67100	33268	808
0	67114	33278	808
0	67130	33288	808
0	67144	33298	808
0	67158	33308	808
0	67172	33318	808
0	67186	33328	808
0	67200	33338	808
0	67214	33348	808
0	67228	33358	808
0	67242	33368	808
0	67256	33378	808
0	67270	33388	808
0	67284	33398	808
0	67298	33408	808
0	67312	33418	808
0	67326	33428	808
0	67340	33438	808
0	73308	36844	854
0	73336	36854	854
0	73364	36864	854
0	73392	36874	854
0	73420	36884	854
0	73448	36894	854
0	73476	36904	854
0	73504	36914	854
0	73532	36924	854
0	73560	36934	854
0	73588	36944	854
0	73616	36954	854
0	73644	36964	854
0	73672	36974	854
0	73700	36984	854
0	73728	36994	854
0	73756	37004	854
0	73784	37014	854
0	73812	37024	854
0	73840	37034	854
0	73868	37044	854
0	73896	37054	854
0	73924	37064	854
0	73952	37074	854
0	73980	37084	854
0	74011	37094	854
0	74039	37104	854
0	74067	37114	854
0	74095	37124	854
0	74123	37134	854
0	74151	37144	854
0	74179	37154	854
0	74207	37164	854
0	74235	37174	854
0	74263	37184	854
0	74291	37194	854
0	74319	37204	854
0	74347	37214	854
0	74375	37224	854
0	74403	37234	854
0	74431	37244	854
0	74459	37254	854
0	74487	37264	854
0	74515	37274	854
0	74543	37284	854
0	74571	37294	854
0	74599	37304	854
0	74627	37314	854
0	74655	37324	854
0	74685	37334	854
0	74713	37344	854
0	74741	37354	854
0	74769	37364	854
0	74797	37374	854
0	74825	37384	854
0	74853	37394	854
0	74881	37404	854
0	74909	37414	854
0	74937	37424	854
0	74965	37434	854
0	74993	37444	854
0	75021	37454	854
0	75049	37464	854
0	75077	37474	854
0	75105	37484	854
0	75133	37494	854
0	75161	37504	854
0	75189	37514	854
0	75217	37524	854
0	75245	37534	854
0	75273	37544	854
0	75301	37554	854
0	75329	37564	854
0	75357	37574	854
0	75385	37584	854
0	75413	37594	854
0	75441	37604	854
0	75469	37614	854
0	75497	37624	854
0	75525	37634	854
0	75553	37644	854
0	75581	37654	854
0	75614	37664	854
0	75647	37674	854
0	75680	37684	854
0	75713	37694	854
0	83941	41134	2154
0	83948	41134	2144
0	83954	41134	2134
0	83960	41134	2124
0	83966	41134	2114
0	83972	41134	2104
0	83978	41134	2094
0	83984	41134	2084
0	83990	41134	2074
0	83996	41134	2064
0	84002	41134	2054
0	84008	41134	2044
0	84014	41134	2034
0	84020	41134	2024
0	84026	41134	2014
0	84032	41134	2004
0	84038	41134	1994
0	84044	41134	1984
0	84050	41134	1974
0	84056	41134	1964
0	84062	41134	1954
0	84068	41134	1944
0	84074	41134	1934
0	84080	41134	1924
0	84086	41134	1914
0	84092	41134	1904
0	84098	41134	1894
0	84104	41134	1884
0	84110	41134	1874
0	84116	41134	1864
0	84122	41134	1854
0	84128	41134	1844
0	84134	41134	1834
0	84140	41134	1824
0	84146	41134	1814
0	84152	41134	1804
0	84158	41134	1794
0	84164	41134	1784
0	84170	41134	1774
0	84176	41134	1764
0	84182	41134	1754
0	84188	41134	1744
0	84194	41134	1734
0	84200	41134	1724
0	84206	41134	1714
0	84212	41134	1704
0	84218	41134	1694
0	84224	41134	1684
0	84230	41134	1674
0	84236	41134	1664
0	84242	41134	1654
0	84248	41134	1644
0	84254	41134	1634
0	84260	41134	1624
0	84266	41134	1614
0	84272	41134	1604
0	84278	41134	1594
0	84284	41134	1584
0	84290	41134	1574
0	84296	41134	1564
0	84302	41134	1554
0	84308	41134	1544
0	84314	41134	1534
0	84320	41134	1524
0	84326	41134	1514
0	84332	41134	1504
0	84338	41134	1494
0	84344	41134	1484
0	84350	41134	1474
0	84356	41134	1464
0	84362	41134	1454
0	84368	41134	1444
0	84374	41134	1434
0	84380	41134	1424
0	84386	41134	1414
0	84392	41134	1404
0	84398	41134	1394
0	84404	41134	1384
0	84410	41134	1374
0	84416	41134	1364
0	84422	41134	1354
0	84428	41134	1344
0	84434	41134	1334
0	84440	41134	1324
0	84446	41134	1314
0	84452	41134	1304
0	84458	41134	1294
0	84464	41134	1284
0	84470	41134	1274
0	84476	41134	1264
0	84482	41134	1254
0	84488	41134	1244
0	84494	41134	1234
0	84500	41134	1224
0	84506	41134	1214
0	84512	41134	1204
0	84518	41134	1194
0	84524	41134	1184
0	84530	41134	1174
0	84536	41134	1164
0	84542	41134	1154
0	84548	41134	1144
0	84554	41134	1134
0	84560	41134	1124
0	84566	41134	1114
0	84572	41134	1104
0	84578	41134	1094
0	84584	41134	1084
0	84590	41134	1074
0	84596	41134	1064
0	84602	41134	1054
0	84608	41134	1044
0	84614	41134	1034
0	84620	41134	1024
0	84626	41134	1014
0	84632	41134	1004
0	84638	41134	994
0	84644	41134	984
0	84650	41134	974
0	84656	41134	964
0	84662	41134	954
0	84668	41134	944
0	84674	41134	934
0	84680	41134	924
0	84686	41134	914
0	84692	41134	904
0	84698	41134	894
0	84704	41134	884
0	84710	41134	874
0	84716	41134	864
0	84722	41134	854
0	84728	41134	844
0	84734	41134	834
0	84740	41134	824
0	84753	41144	824
0	84767	41154	824
0	84783	41164	824
0	84797	41174	824
0	84811	41184	824
0	84832	41194	824
0	84853	41204	824
0	84874	41214	824
0	84895	41224	824
0	84916	41234	824
0	84937	41244	824
0	84958	41254	824
0	84979	41264	824
0	85000	41274	824
0	90889	44975	4515
0	90903	44975	4505
0	90917	44975	4495
0	90928	44975	4485
0	90942	44975	4475
0	90953	44975	4465
0	90967	44975	4455
0	90978	44975	4445
0	90992	44975	4435
0	91003	44975	4425
0	91017	44975	4415
0	91028	44975	4405
0	91042	44975	4395
0	91053	44975	4385
0	91067	44975	4375
0	91078	44975	4365
0	91092	44975	4355
0	91103	44975	4345
0	91117	44975	4335
0	91128	44975	4325
0	91142	44975	4315
0	91153	44975	4305
0	91167	44975	4295
0	91178	44975	4285
0	91192	44975	4275
0	91203	44975	4265
0	91217	44975	4255
0	91228	44975	4245
0	91242	44975	4235
0	91253	44975	4225
0	91267	44975	4215
0	91278	44975	4205
0	91292	44975	4195
0	91303	44975	4185
0	91317	44975	4175
0	91328	44975	4165
0	91342	44975	4155
0	91353	44975	4145
0	91367	44975	4135
0	91378	44975	4125
0	91392	44975	4115
0	91403	44975	4105
0	91417	44975	4095
0	91428	44975	4085
0	91442	44975	4075
0	91453	44975	4065
0	91467	44975	4055
0	91478	44975	4045
0	91492	44975	4035
0	91503	44975	4025
0	91517	44975	4015
0	91528	44975	4005
0	91542	44975	3995
0	91553	44975	3985
0	91567	44975	3975
0	91578	44975	3965
0	91592	44975	3955
0	91603	44975	3945
0	91617	44975	3785
0	91628	44975	3775
0	91642	44975	3765
0	91653	44975	3755
0	91667	44975	3745
0	91678	44975	3735
0	91692	44975	3725
0	91703	44975	3715
0	91717	44975	3705
0	91728	44975	3695
0	91742	44975	3685
0	91753	44975	3675
0	91767	44975	3665
0	91778	44975	3655
0	91792	44975	3645
0	91803	44975	3635
0	91817	44975	3625
0	91828	44975	3615
0	91842	44975	3605
0	91853	44975	3595
0	91867	44975	3585
0	91878	44975	3575
0	91892	44975	3565
0	91903	44975	3555
0	91917	44975	3545
0	91928	44975	3535
0	91942	44975	3525
0	91953	44975	3515
0	91967	44975	3505
0	91978	44975	3495
0	91992	44975	3485
0	92003	44975	3475
0	92017	44975	3465
0	92028	44975	3455
0	92042	44975	3445
0	92053	44975	3435
0	92067	44975	3425
0	92078	44975	3415
0	92092	44975	3405
0	92103	44975	3395
0	92117	44975	3385
0	92128	44975	3375
0	92142	44975	3365
0	92153	44975	3355
0	92167	44975	3345
0	92178	44975	3335
0	92192	44975	3325
0	92203	44975	3315
0	92217	44975	3305
0	92228	44975	3295
0	92242	44975	3285
0	92253	44975	3275
0	92267	44975	3265
0	92278	44975	3255
0	92292	44975	3245
0	92303	44975	3235
0	92317	44975	3225
0	92328	44975	3215
0	92342	44975	3205
0	92353	44975	3195
0	92367	44975	3185
0	92378	44975	3175
0	92392	44975	3165
0	92403	44975	3155
0	92417	44975	3145
0	92428	44975	3135
0	92442	44975	3125
0	92453	44975	3115
0	92467	44975	3105
0	92478	44975	3095
0	92492	44975	3085
0	92503	44975	3075
0	92517	44975	3065
0	92528	44975	3055
0	92542	44975	3045
0	92553	44975	3035
0	92567	44975	3025
0	92578	44975	3015
0	92592	44975	3005
0	92603	44975	2995
0	92617	44975	2985
0	92628	44975	2975
0	92642	44975	2965
0	92653	44975	2955
0	92667	44975	2945
0	92678	44975	2935
0	92692	44975	2925
0	92703	44975	2915
0	92717	44975	2905
0	92728	44975	2895
0	92742	44975	2885
0	92753	44975	2875
0	92767	44975	2865
0	92778	44975	2855
0	92792	44975	2845
0	92803	44975	2835
0	92817	44975	2825
0	92828	44975	2815
0	92842	44975	2805
0	92853	44975	2795
0	92867	44975	2785
0	92878	44975	2775
0	92892	44975	2765
0	92903	44975	2755
0	92917	44975	2745
0	92928	44975	2735
0	92942	44975	2725
0	92953	44975	2715
0	92967	44975	2705
0	92978	44975	2695
0	92992	44975	2685
0	93003	44975	2675
0	93017	44975	2665
0	93028	44975	2655
0	93042	44975	2645
0	93053	44975	2635
0	93067	44975	2625
0	93078	44975	2615
0	93092	44975	2605
0	93103	44975	2595
0	93117	44975	2585
0	93128	44975	2575
0	93142	44975	2565
0	93153	44975	2555
0	93167	44975	2545
0	93178	44975	2535
0	93192	44975	2525
0	93203	44975	2515
0	93217	44975	2505
0	93228	44975	2495
0	93242	44975	2485
0	93253	44975	2475
0	93267	44975	2465
0	93278	44975	2455
0	93292	44975	2445
0	93303	44975	2435
0	93317	44975	2425
0	93328	44975	2415
0	93342	44975	2405
0	93353	44975	2395
0	93367	44975	2385
0	93378	44975	2375
0	93392	44975	2365
0	93403	44975	2355
0	93417	44975	2345
0	93428	44975	2335
0	93442	44975	2325
0	93453	44975	2315
0	93467	44975	2305
0	93478	44975	2295
0	93492	44975	2285
0	93503	44975	2275
0	93517	44975	2265
0	93528	44975	2255
0	93542	44975	2245
0	93553	44975	2235
0	93567	44975	2225
0	93578	44975	2215
0	93592	44975	2205
0	93603	44975	2195
0	93617	44975	2185
0	93628	44975	2175
0	93642	44975	2165
0	93653	44975	2155
0	93667	44975	2145
0	93678	44975	2135
0	93692	44975	2125
0	93703	44975	2115
0	93717	44975	2105
0	93728	44975	2095
0	93742	44975	2085
0	93753	44975	2075
0	93767	44975	2065
0	93778	44975	2055
0	93792	44975	2045
0	93803	44975	2035
0	93817	44975	2025
0	93828	44975	2015
0	93842	44975	2005
0	93853	44975	1995
0	93867	44975	1985
0	93878	44975	1975
0	93892	44975	1965
0	93903	44975	1955
0	93917	44975	1945
0	93928	44975	1935
0	93942	44975	1925
0	93953	44975	1915
0	93967	44975	1905
0	93978	44975	1895
0	93992	44975	1885
0	94003	44975	1875
0	94017	44975	1865
0	94028	44975	1855
0	94042	44975	1845
0	94053	44975	1835
0	94067	44975	1825
0	94078	44975	1815
0	94092	44975	1805
0	94103	44975	1795
0	94117	44975	1785
0	94128	44975	1775
0	94142	44975	1765
0	94153	44975	1755
0	94167	44975	1745
0	94178	44975	1735
0	94192	44975	1725
0	94203	44975	1715
0	94217	44975	1705
0	94228	44975	1695
0	94242	44975	1685
0	94253	44975	1675
0	94267	44975	1665
0	94278	44975	1655
0	94292	44975	1645
0	94303	44975	1635
0	94317	44975	1625
0	94328	44975	1615
0	94342	44975	1605
0	94353	44975	1595
0	94367	44975	1585
0	94378	44975	1575
0	94392	44975	1565
0	94403	44975	1555
0	94417	44975	1545
0	94428	44975	1535
0	94442	44975	1525
0	94453	44975	1515
0	94467	44975	1505
0	94478	44975	1495
0	94492	44975	1485
0	94503	44975	1475
0	94517	44975	1465
0	94528	44975	1455
0	94542	44975	1445
0	94553	44975	1435
0	94567	44975	1425
0	94578	44975	1415
0	94592	44975	1405
0	94603	44975	1395
0	94617	44975	1385
0	94628	44975	1375
0	94642	44975	1365
0	94653	44975	1355
0	94667	44975	1345
0	94678	44975	1335
0	94692	44975	1325
0	94703	44975	1315
0	94717	44975	1305
0	94728	44975	1295
0	94742	44975	1285
0	94753	44975	1275
0	94767	44975	1265
0	94778	44975	1255
0	94792	44975	1245
0	94803	44975	1235
0	94817	44975	1225
0	94828	44975	1215
0	94842	44975	1205
0	94853	44975	1195
0	94867	44975	1185
0	94878	44975	1175
0	94892	44975	1165
0	94903	44975	1155
0	94917	44975	1145
0	94928	44975	1135
0	94942	44975	1125
0	94953	44975	1115
0	94967	44975	1105
0	94978	44975	1095
0	94992	44975	1085
0	95003	44975	1075
0	95017	44975	1065
0	95028	44975	1055
0	95042	44975	1045
0	95053	44975	1035
0	95067	44975	1025
0	95078	44975	1015
0	95092	44975	1005
0	95103	44975	995
0	95117	44975	985
0	95128	44975	975
0	95142	44975	965
0	95153	44975	955
0	95167	44975	945
0	95178	44975	935
0	95192	44975	925
0	95203	44975	915
0	95217	44975	905
0	95228	44975	895
0	95242	44975	885
0	95253	44975	875
0	95267	44975	865
0	95278	44975	855
0	95292	44975	845
0	95303	44975	835
0	95317	44975	825
0	95324	44975	815
0	95342	44978	808
0	95378	44988	808
0	95414	44998	808
0	95450	45008	808
0	95486	45018	808
0	95522	45028	808
0	95558	45038	808
0	95594	45048	808
0	95630	45058	808
0	95667	45068	808
0	95703	45078	808
0	95739	45088	808
0	95776	45098	808
0	95809	45108	808
0	95842	45118	808
0	95875	45128	808
0	95908	45138	808
0	95944	45148	808
0	95981	45158	808
0	96016	45168	808
0	96051	45178	808
0	96086	45188	808
0	96124	45198	808
0	96160	45208	808
0	96196	45218	808
0	96232	45228	808
0	96262	45238	808
0	96289	45248	808
0	96316	45258	808
0	96343	45268	808
0	96370	45278	808
0	96397	45288	808
0	96424	45298	808
0	96451	45308	808
0	96478	45318	808
0	96505	45328	808
0	96532	45338	808
0	96559	45348	808
0	96586	45358	808
0	96613	45368	808
0	96640	45378	808
0	96667	45388	808
0	96694	45398	808
0	96721	45408	808
0	96749	45418	808
0	96775	45428	808
0	96801	45438	808
0	96827	45448	808
0	96853	45458	808
0	96879	45468	808
0	96905	45478	808
0	96931	45488	808
0	96957	45498	808
0	96983	45508	808
0	97009	45518	808
0	97037	45528	808
0	97064	45538	808
0	97091	45548	808
0	97118	45558	808
0	97145	45568	808
0	97172	45578	808
0	97199	45588	808
0	97226	45598	808
0	97253	45608	808
0	97280	45618	808
0	97307	45628	808
0	97334	45638	808
0	97361	45648	808
0	97388	45658	808
0	97415	45668	808
0	97442	45678	808
0	97469	45688	808
0	97496	45698	808
0	97523	45708	808
0	97550	45718	808
0	97577	45728	808
0	97604	45738	808
0	97631	45748	808
0	97658	45758	808
0	97685	45768	808
0	97712	45778	808
0	97739	45788	808
0	97766	45798	808
0	97793	45808	808
0	97820	45818	808
0	97847	45828	808
0	97874	45838	808
0	97901	45848	808
0	97928	45858	808
0	97955	45868	808
0	97993	45878	808
0	98031	45888	808
0	98069	45898	808
0	100003	46678	808
0	100042	46688	808
0	100081	46698	808
0	100120	46708	808
0	100161	46718	808
0	100200	46728	808
0	100240	46738	808
0	100280	46748	808
0	100320	46758	808
0	100360	46768	808
0	100400	46778	808
0	100440	46788	808
0	100480	46798	808
0	100520	46808	808
0	100560	46818	808
0	100600	46828	808
0	100640	46838	808
0	100680	46848	808
0	100720	46858	808
0	100760	46868	808
0	100800	46878	808
0	100840	46888	808
0	100882	46898	808
0	100923	46908	808
0	100964	46918	808
0	101005	46928	808
0	101046	46938	808
0	101087	46948	808
0	101128	46958	808
0	101169	46968	808
0	101210	46978	808
0	101251	46988	808
0	101292	46998	808
0	101333	47008	808
0	101374	47018	808
0	101415	47028	808
0	101456	47038	808
0	101498	47048	808
0	101539	47058	808
0	101579	47068	808
0	101619	47078	808
0	101659	47088	808
0	101699	47098	808
0	101739	47108	808
0	101779	47118	808
0	101816	47128	808
0	101853	47138	808
0	101890	47148	808
0	101927	47158	808
0	101964	47168	808
0	102001	47178	808
0	102038	47188	808
0	102075	47198	808
0	102112	47208	808
0	102149	47218	808
0	102186	47228	808
0	102223	47238	808
0	102260	47248	808
0	102297	47258	808
0	102334	47268	808
0	102371	47278	808
0	102408	47288	808
0	102445	47298	808
0	102482	47308	808
0	102519	47318	808
0	102557	47328	808
0	102593	47338	808
0	102629	47348	808
0	102665	47358	808
0	102701	47368	808
0	102737	47378	808
0	102773	47388	808
0	102809	47398	808
0	102845	47408	808
0	102881	47418	808
0	102917	47428	808
0	102953	47438	808
0	102989	47448	808
0	103025	47458	808
0	103062	47468	808
0	103097	47478	808
0	103132	47488	808
0	103169	47498	808
0	103205	47508	808
0	103241	47518	808
0	103277	47528	808
0	103313	47538	808
0	103349	47548	808
0	103385	47558	808
0	103421	47568	808
0	103457	47578	808
0	103493	47588	808
0	103529	47598	808
0	103565	47608	808
0	103601	47618	808
0	103637	47628	808
0	103675	47638	808
0	103712	47648	808
0	103748	47658	808
0	103784	47668	808
0	103820	47678	808
0	103856	47688	808
0	103893	47698	808
0	103928	47708	808
0	103963	47718	808
0	103998	47728	808
0	104033	47738	808
0	104068	47748	808
0	104103	47758	808
0	104138	47768	808
0	104173	47778	808
0	104210	47788	808
0	104246	47798	808
0	104282	47808	808
0	104318	47818	808
0	104354	47828	808
0	104390	47838	808
0	104426	47848	808
0	104462	47858	808
0	104498	47868	808
0	104535	47878	808
0	104562	47888	808
0	104589	47898	808
0	104616	47908	808
0	104643	47918	808
0	108145	50688	808
0	108169	50698	808
0	108193	50708	808
0	108217	50718	808
0	108241	50728	808
0	108265	50738	808
0	108289	50748	808
0	108313	50758	808
0	108337	50768	808
0	108361	50778	808
0	108385	50788	808
0	108409	50798	808
0	108433	50808	808
0	108457	50818	808
0	108481	50828	808
0	108505	50838	808
0	108529	50848	808
0	108553	50858	808
0	108577	50868	808
0	108601	50878	808
0	108625	50888	808
0	108649	50898	808
0	108673	50908	808
0	108697	50918	808
0	108721	50928	808
0	108745	50938	808
0	108769	50948	808
0	108793	50958	808
0	108817	50968	808
0	108841	50978	808
0	108865	50988	808
0	108888	50998	808
0	108911	51008	808
0	108934	51018	808
0	108957	51028	808
0	108980	51038	808
0	109003	51048	808
0	109026	51058	808
0	109049	51068	808
0	109072	51078	808
0	109095	51088	808
0	109118	51098	808
0	109141	51108	808
0	109164	51118	808
0	109187	51128	808
0	109212	51138	808
0	109235	51148	808
0	109258	51158	808
0	109282	51168	808
0	109295	51178	808
0	109308	51188	808
0	109321	51198	808
0	109334	51208	808
0	109347	51218	808
0	109360	51228	808
0	109373	51238	808
0	109386	51248	808
0	109399	51258	808
0	109412	51268	808
0	109425	51278	808
0	109438	51288	808
0	109451	51298	808
0	109464	51308	808
0	109477	51318	808
0	109490	51328	808
0	109503	51338	808
0	109516	51348	808
0	109529	51358	808
0	109542	51368	808
0	109555	51378	808
0	109568	51388	808
0	109585	51398	808
0	109598	51408	808
0	109611	51418	808
0	109624	51428	808
0	109637	51438	808
0	109649	51448	808
0	109661	51458	808
0	109673	51468	808
0	109685	51478	808
0	109698	51488	808
0	109710	51498	808
0	109722	51508	808
0	109734	51518	808
0	109746	51528	808
0	109758	51538	808
0	109770	51548	808
0	109782	51558	808
0	109794	51568	808
0	109806	51578	808
0	109818	51588	808
0	109830	51598	808
0	109842	51608	808
0	109854	51618	808
0	109866	51628	808
0	109878	51638	808
0	109890	51648	808
0	109902	51658	808
0	109914	51668	808
0	109926	51678	808
0	109938	51688	808
0	109950	51698	808
0	109962	51708	808
0	109974	51718	808
0	109986	51728	808
0	109998	51738	808
0	110010	51748	808
0	110022	51758	808
0	110034	51768	808
0	110046	51778	808
0	110058	51788	808
0	110070	51798	808
0	110082	51808	808
0	110094	51818	808
0	110106	51828	808
0	120656	62131	1981
0	120662	62131	1971
0	120668	62131	1961
0	120674	62131	1951
0	120680	62131	1941
0	120686	62131	1931
0	120692	62131	1921
0	120698	62131	1911
0	120704	62131	1901
0	120710	62131	1891
0	120716	62131	1881
0	120722	62131	1871
0	120728	62131	1861
0	120734	62131	1851
0	120740	62131	1841
0	120746	62131	1831
0	120752	62131	1821
0	120758	62131	1811
0	120764	62131	1801
0	120770	62131	1791
0	120776	62131	1781
0	120782	62131	1771
0	120788	62131	1761
0	120794	62131	1751
0	120800	62131	1741
0	120806	62131	1731
0	120812	62131	1721
0	120818	62131	1711
0	120824	62131	1701
0	120830	62131	1691
0	120836	62131	1681
0	120842	62131	1671
0	120848	62131	1661
0	120854	62131	1651
0	120860	62131	1641
0	120866	62131	1631
0	120872	62131	1621
0	120878	62131	1611
0	120884	62131	1601
0	120890	62131	1591
0	120896	62131	1581
0	120902	62131	1571
0	120908	62131	1561
0	120914	62131	1551
0	120920	62131	1541
0	120926	62131	1531
0	120932	62131	1521
0	120938	62131	1511
0	120944	62131	1501
0	120950	62131	1491
0	120956	62131	1481
0	122658	62788	2128
0	122665	62788	2118
0	122671	62788	2108
0	122677	62788	2098
0	122683	62788	2088
0	122689	62788	2078
0	122695	62788	2068
0	122701	62788	2058
0	122707	62788	2048
0	122713	62788	2038
0	122719	62788	2028
0	122725	62788	2018
0	122731	62788	2008
0	122737	62788	1998
0	122743	62788	1988
0	122749	62788	1978
0	122755	62788	1968
0	122761	62788	1958
0	122767	62788	1948
0	122773	62788	1938
0	122779	62788	1928
0	122785	62788	1918
0	122791	62788	1908
0	122797	62788	1898
0	122803	62788	1888
0	122809	62788	1878
0	122815	62788	1868
0	122821	62788	1858
0	122827	62788	1848
0	122833	62788	1838
0	122839	62788	1828
0	122845	62788	1818
0	122851	62788	1808
0	122857	62788	1798
0	122863	62788	1788
0	122869	62788	1778
0	122875	62788	1768
0	122881	62788	1758
0	122887	62788	1748
0	122893	62788	1738
0	122899	62788	1728
0	122905	62788	1718
0	122911	62788	1708
0	122917	62788	1698
0	122923	62788	1688
0	122929	62788	1678
0	122935	62788	1668
0	122941	62788	1658
0	122947	62788	1648
0	122953	62788	1638
0	122959	62788	1628
0	122965	62788	1618
0	122971	62788	1608
0	122977	62788	1598
0	122983	62788	1588
0	122989	62788	1578
0	122995	62788	1568
0	123001	62788	1558
0	123007	62788	1548
0	123013	62788	1538
0	123019	62788	1528
0	123025	62788	1518
0	123031	62788	1508
0	123037	62788	1498
0	123043	62788	1488
0	123049	62788	1478
0	123055	62788	1468
0	123061	62788	1458
0	123067	62788	1448
0	123073	62788	1438
0	123079	62788	1428
0	123085	62788	1418
0	123091	62788	1408
0	123097	62788	1398
0	123103	62788	1388
0	123109	62788	1378
0	123115	62788	1368
0	123121	62788	1358
0	123127	62788	1348
0	123133	62788	1338
0	123139	62788	1328
0	123145	62788	1318
0	123151	62788	1308
0	123157	62788	1298
0	123163	62788	1288
0	123169	62788	1278
0	123175	62788	1268
0	123181	62788	1258
0	123187	62788	1248
0	123193	62788	1238
0	123199	62788	1228
0	123205	62788	1218
0	123211	62788	1208
0	123217	62788	1198
0	123223	62788	1188
0	123229	62788	1178
0	123235	62788	1168
0	123241	62788	1158
0	123247	62788	1148
0	123253	62788	1138
0	123259	62788	1128
0	123265	62788	1118
0	123271	62788	1108
0	123277	62788	1098
0	123283	62788	1088
0	123289	62788	1078
0	123295	62788	1068
0	123301	62788	1058
0	123307	62788	1048
0	123313	62788	1038
0	123319	62788	1028
0	123325	62788	1018
0	123331	62788	1008
0	123337	62788	998
0	123343	62788	988
0	123349	62788	978
0	123355	62788	968
0	123361	62788	958
0	123367	62788	948
0	123373	62788	938
0	123379	62788	928
0	123385	62788	918
0	123391	62788	908
0	123397	62788	898
0	123403	62788	888
0	123409	62788	878
0	123415	62788	868
0	123421	62788	858
0	123427	62788	848
0	123433	62788	838
0	123439	62788	828
0	123445	62788	818
0	123451	62788	808
0	125352	63608	1618
0	125360	63608	1608
0	125366	63608	1598
0	125372	63608	1588
0	125378	63608	1578
0	125384	63608	1568
0	125390	63608	1558
0	125396	63608	1548
0	125402	63608	1538
0	125408	63608	1528
0	125414	63608	1518
0	125420	63608	1508
0	125426	63608	1498
0	125432	63608	1488
0	125438	63608	1478
0	125444	63608	1468
0	125450	63608	1458
0	125456	63608	1448
0	125462	63608	1438
0	125468	63608	1428
0	125474	63608	1418
0	125480	63608	1408
0	125486	63608	1398
0	125492	63608	1388
0	125498	63608	1378
0	125504	63608	1368
0	125510	63608	1358
0	125516	63608	1348
0	125522	63608	1338
0	125528	63608	1328
0	125534	63608	1318
0	125540	63608	1308
0	125546	63608	1298
0	125552	63608	1288
0	125558	63608	1278
0	125564	63608	1268
0	125570	63608	1258
0	125576	63608	1248
0	125582	63608	1238
0	125588	63608	1228
0	125594	63608	1218
0	125600	63608	1208
0	125606	63608	1198
0	125612	63608	1188
0	125618	63608	1178
0	125624	63608	1168
0	125630	63608	1158
0	125636	63608	1148
0	125642	63608	1138
0	125648	63608	1128
0	125654	63608	1118
0	125660	63608	1108
0	125666	63608	1098
0	125672	63608	1088
0	125678	63608	1078
0	125684	63608	1068
0	125690	63608	1058
0	125696	63608	1048
0	125702	63608	1038
0	125708	63608	1028
0	125714	63608	1018
0	125720	63608	1008
0	125726	63608	998
0	125732	63608	988
0	125738	63608	978
0	125744	63608	968
0	125750	63608	958
0	125756	63608	948
0	125762	63608	938
0	125768	63608	928
0	125774	63608	918
0	125780	63608	908
0	125786	63608	898
0	125792	63608	888
0	125798	63608	878
0	125804	63608	868
0	125810	63608	858
0	125816	63608	848
0	125822	63608	838
0	125828	63608	828
0	125834	63608	818
0	125840	63608	808
0	125854	63618	808
0	125870	63628	808
0	125886	63638	808
0	125902	63648	808
0	125918	63658	808
0	125934	63668	808
0	125950	63678	808
0	125966	63688	808
0	125982	63698	808
0	125998	63708	808
0	126014	63718	808
0	126030	63728	808
0	126046	63738	808
0	126063	63748	808
0	126079	63758	808
0	126095	63768	808
0	126111	63778	808
0	126127	63788	808
0	126144	63798	808
0	126160	63808	808
0	126176	63818	808
0	126192	63828	808
0	126208	63838	808
0	126224	63848	808
0	126242	63858	808
0	126258	63868	808
0	126274	63878	808
0	126290	63888	808
0	126306	63898	808
0	126322	63908	808
0	126338	63918	808
0	126354	63928	808
0	126370	63938	808
0	126386	63948	808
0	126402	63958	808
0	126418	63968	808
0	126434	63978	808
0	126450	63988	808
0	126466	63998	808
0	126482	64008	808
0	126498	64018	808
0	126514	64028	808
0	126530	64038	808
0	126546	64048	808
0	126562	64058	808
0	126578	64068	808
0	126594	64078	808
0	126610	64088	808
0	126626	64098	808
0	126642	64108	808
0	126658	64118	808
0	126674	64128	808
0	126692	64138	808
0	126708	64148	808
0	126724	64158	808
0	126740	64168	808
0	126756	64178	808
0	126772	64188	808
0	126788	64198	808
0	126804	64208	808
0	147655	74074	824
0	147680	74084	824
0	147705	74094	824
0	147730	74104	824
0	147755	74114	824
0	147780	74124	824
0	147805	74134	824
0	147830	74144	824
0	147855	74154	824
0	147880	74164	824
0	147905	74174	824
0	147930	74184	824
0	147955	74194	824
0	147980	74204	824
0	148005	74214	824
0	148030	74224	824
0	148055	74234	824
0	148080	74244	824
0	148105	74254	824
0	148131	74264	824
0	148157	74274	824
0	148181	74284	824
0	148205	74294	824
0	148229	74304	824
0	148253	74314	824
0	148279	74324	824
0	148304	74334	824
0	148329	74344	824
0	148354	74354	824
0	148379	74364	824
0	148404	74374	824
0	148429	74384	824
0	148454	74394	824
0	148481	74404	824
0	148507	74414	824
0	148533	74424	824
0	148559	74434	824
0	148585	74444	824
0	148611	74454	824
0	148637	74464	824
0	148663	74474	824
0	148689	74484	824
0	148715	74494	824
0	148741	74504	824
0	148767	74514	824
0	148793	74524	824
0	148819	74534	824
0	148845	74544	824
0	148871	74554	824
0	148897	74564	824
0	148923	74574	824
0	148949	74584	824
0	148975	74594	824
0	149001	74604	824
0	149027	74614	824
0	149053	74624	824
0	149079	74634	824
0	149105	74644	824
0	149131	74654	824
0	149157	74664	824
0	149183	74674	824
0	149209	74684	824
0	149235	74694	824
0	149261	74704	824
0	149287	74714	824
0	149313	74724	824
0	149339	74734	824
0	149366	74744	824
0	152355	76304	2374
0	152365	76304	2364
0	152371	76304	2354
0	152377	76304	2344
0	152383	76304	2334
0	152389	76304	2324
0	152395	76304	2314
0	152401	76304	2304
0	152407	76304	2294
0	152413	76304	2284
0	152419	76304	2274
0	152425	76304	2264
0	152431	76304	2254
0	152437	76304	2244
0	152443	76304	2234
0	152449	76304	2224
0	152455	76304	2214
0	152461	76304	2204
0	152467	76304	2194
0	152473	76304	2184
0	152479	76304	2174
0	152485	76304	2164
0	152491	76304	2154
0	152497	76304	2144
0	152503	76304	2134
0	152509	76304	2124
0	152515	76304	2114
0	152521	76304	2104
0	152527	76304	2094
0	152533	76304	2084
0	152539	76304	2074
0	152545	76304	2064
0	152551	76304	2054
0	152557	76304	2044
0	152563	76304	2034
0	152569	76304	2024
0	152575	76304	2014
0	152581	76304	2004
0	152587	76304	1994
0	152593	76304	1984
0	152599	76304	1974
0	152605	76304	1964
0	152611	76304	1954
0	152617	76304	1944
0	152623	76304	1934
0	152629	76304	1924
0	152635	76304	1914
0	152641	76304	1904
0	152647	76304	1894
0	152653	76304	1884
0	152659	76304	1874
0	152665	76304	1864
0	152671	76304	1854
0	152677	76304	1844
0	152683	76304	1834
0	152689	76304	1824
0	152695	76304	1814
0	152701	76304	1804
0	152707	76304	1794
0	152713	76304	1784
0	152719	76304	1774
0	152725	76304	1764
0	152731	76304	1754
0	152737	76304	1744
0	152743	76304	1734
0	152749	76304	1724
0	152755	76304	1714
0	152761	76304	1704
0	152767	76304	1694
0	152773	76304	1684
0	152779	76304	1674
0	152785	76304	1664
0	152791	76304	1654
0	152797	76304	1644
0	152803	76304	1634
0	152809	76304	1624
0	152815	76304	1614
0	152821	76304	1604
0	152827	76304	1594
0	152833	76304	1584
0	152839	76304	1574
0	152845	76304	1564
0	152851	76304	1554
0	152857	76304	1544
0	152863	76304	1534
0	152869	76304	1524
0	152875	76304	1514
0	152881	76304	1504
0	152887	76304	1494
0	152893	76304	1484
0	152899	76304	1474
0	152905	76304	1464
0	152911	76304	1454
0	152917	76304	1444
0	152923	76304	1434
0	152929	76304	1424
0	152935	76304	1414
0	152941	76304	1404
0	152947	76304	1394
0	152953	76304	1384
0	152959	76304	1374
0	152965	76304	1364
0	152971	76304	1354
0	152977	76304	1344
0	152983	76304	1334
0	152989	76304	1324
0	152995	76304	1314
0	153001	76304	1304
0	153007	76304	1294
0	153013	76304	1284
0	153019	76304	1274
0	153025	76304	1264
0	153031	76304	1254
0	153037	76304	1244
0	153043	76304	1234
0	153049	76304	1224
0	153055	76304	1214
0	153061	76304	1204
0	153067	76304	1194
0	153073	76304	1184
0	153079	76304	1174
0	153085	76304	1164
0	153091	76304	1154
0	153097	76304	1144
0	153103	76304	1134
0	153109	76304	1124
0	153115	76304	1114
0	153121	76304	1104
0	153127	76304	1094
0	153133	76304	1084
0	153139	76304	1074
0	153145	76304	1064
0	153151	76304	1054
0	153157	76304	1044
0	153163	76304	1034
0	153169	76304	1024
0	153175	76304	1014
0	153181	76304	1004
0	153187	76304	994
0	153193	76304	984
0	153199	76304	974
0	153205	76304	964
0	153211	76304	954
0	153217	76304	944
0	153223	76304	934
0	153229	76304	924
0	153235	76304	914
0	153241	76304	904
0	153247	76304	894
0	153253	76304	884
0	153259	76304	874
0	153265	76304	864
0	153271	76304	854
0	153277	76304	844
0	153283	76304	834
0	153289	76304	824
0	153314	76314	824
0	153343	76324	824
0	153372	76334	824
0	153401	76344	824
0	153430	76354	824
0	153459	76364	824
0	153488	76374	824
0	153517	76384	824
0	153546	76394	824
0	153575	76404	824
0	153606	76414	824
0	153635	76424	824
0	153664	76434	824
0	160345	85934	854
0	160371	85944	854
0	160397	85954	854
0	160423	85964	854
0	160449	85974	854
0	160475	85984	854
0	160501	85994	854
0	160527	86004	854
0	160553	86014	854
0	160579	86024	854
0	160605	86034	854
0	160631	86044	854
0	160657	86054	854
0	160683	86064	854
0	160709	86074	854
0	160735	86084	854
0	160761	86094	854
0	160787	86104	854
0	160813	86114	854
0	160839	86124	854
0	160867	86134	854
0	160893	86144	854
0	160919	86154	854
0	160945	86164	854
0	160971	86174	854
0	160997	86184	854
0	161023	86194	854
0	161049	86204	854
0	161075	86214	854
0	161101	86224	854
0	161127	86234	854
0	161153	86244	854
0	161179	86254	854
0	161205	86264	854
0	161231	86274	854
0	161257	86284	854
0	161283	86294	854
0	161309	86304	854
0	161335	86314	854
0	161361	86324	854
0	161387	86334	854
0	161413	86344	854
0	161439	86354	854
0	161465	86364	854
0	161492	86374	854
0	161518	86384	854
0	161544	86394	854


