version 2
run General-0-20250112-07:03:35-75092
attr configname General
attr datetime 20250112-07:03:35
attr experiment General
attr inifile shaw.ini
attr iterationvars ""
attr iterationvarsf ""
attr measurement ""
attr network src.dtnsim
attr processid 75092
attr repetition 0
attr replication #0
attr resultdir results
attr runnumber 0
attr seedset 0
param dtnsim.central.contactsFile "\"contactPlan/shaw_contact1.txt\""
param dtnsim.central.contactIdsToDelete_from_celestialA "\"11 22 28 30 32 37 54 60 61 79 85 92 97 110 120 124 130 145 148 157 164 168 184 185 186 207 211 212 229 232 248 255 257 266 267 274 283 285 310 317 319 321 325 328 337 342 345 374 377 387 395 405 407 412 421 426 428 436 438 452 454 473 474 480 502 504 512 540 545 547 549 554 557 570 575 585 588 590 601 602 606 641 642 646 647 657 661 662 673 689 691 693 715 728 735 737 743 745 750 759 763 770 773 786 787 796 802 803 809 811 813 817 827 829 837 842 846 854 861 871 880 885 898 906 909 911 944 947 991 996 998\""
param dtnsim.central.contactIdsToDelete_from_celestialB "\"4 12 18 25 29 40 41 44 45 49 53 55 58 66 71 73 78 84 89 91 114 116 122 133 143 171 190 193 195 201 208 214 217 218 224 227 233 238 250 253 258 263 264 265 268 276 280 287 295 297 299 306 320 326 333 338 340 346 347 355 361 362 367 378 385 394 396 430 433 435 442 446 448 451 460 466 467 471 481 488 490 495 500 503 506 509 511 513 527 528 530 538 542 546 562 566 568 571 573 574 584 589 594 600 605 616 617 620 627 629 630 633 643 658 671 681 688 708 710 712 717 725 736 739 751 758 761 772 779 781 784 791 792 798 804 805 808 814 825 828 830 839 844 853 858 866 868 869 884 886 892 894 895 897 899 913 922 929 930 931 936 943 948 952 978 985 997 999 1000\""
param dtnsim.central.celestialA_nodes "\"1 2 3\""
param dtnsim.central.celestialB_nodes "\"4 5 6\""
param dtnsim.central.locallyfaultsAware false
param dtnsim.central.mode_two_celestial true
param dtnsim.nodesNumber 6
param dtnsim.node[1].icon "\"receiverdish\""
param dtnsim.node[2..5].icon "\"satellite\""
param dtnsim.node[6].icon "\"receiverdish\""
param dtnsim.node[*].dtn.routing "\"cgrModel350\""
param dtnsim.node[*].dtn.routingType "\"routeListType:allPaths-firstEnding,volumeAware:allContacts,extensionBlock:on,contactPlan:global\""
param dtnsim.node[1].app.enable true
param dtnsim.node[*].app.custodyTransfer true
param dtnsim.node[1].app.bundlesNumber "\"5000\""
param dtnsim.node[1].app.start "\"0\""
param dtnsim.node[1].app.destinationEid "\"6\""
param dtnsim.node[1].app.size "\"1500\""
param dtnsim.node[1].app.interval 0.2

vector 0 dtnsim.node[6].app appBundleReceivedDelayvec:vector ETV
attr interpolationmode none
attr source appBundleReceivedDelay
attr title "appBundleReceivedDelayvec, vector"
0	2656	92.1	27.1
0	2657	92.1	26.9
0	2658	92.1	26.7
0	2659	92.1	26.5
0	2660	92.1	26.3
0	2661	92.1	26.1
0	2662	92.1	25.9
0	2663	92.1	25.7
0	2664	92.1	25.5
0	2665	92.1	25.3
0	2666	92.1	25.1
0	2667	92.1	24.9
0	2668	92.1	24.7
0	2669	92.1	24.5
0	2670	92.1	24.3
0	2671	92.1	24.1
0	2672	92.1	23.9
0	2673	92.1	23.7
0	2674	92.1	23.5
0	2675	92.1	23.3
0	2676	92.1	23.1
0	2677	92.1	22.9
0	2678	92.1	22.7
0	2679	92.1	22.5
0	2680	92.1	22.3
0	2681	92.1	22.1
0	2682	92.1	21.9
0	2683	92.1	21.7
0	2684	92.1	21.5
0	2685	92.1	21.3
0	2686	92.1	21.1
0	2687	92.1	20.9
0	2688	92.1	20.7
0	2689	92.1	20.5
0	2690	92.1	20.3
0	2691	92.1	20.1
0	2692	92.1	19.9
0	2693	92.1	19.7
0	2694	92.1	19.5
0	2695	92.1	19.3
0	2696	92.1	19.1
0	2697	92.1	18.9
0	2698	92.1	18.7
0	2699	92.1	18.5
0	2700	92.1	18.3
0	2701	92.1	18.1
0	2702	92.1	17.9
0	2703	92.1	17.7
0	2704	92.1	17.5
0	2705	92.1	17.3
0	2706	92.1	17.1
0	2707	92.1	16.9
0	2708	92.1	16.7
0	2709	92.1	16.5
0	2710	92.1	16.3
0	2711	92.1	16.1
0	2712	92.1	15.9
0	2713	92.1	15.7
0	2714	92.1	15.5
0	2715	92.1	15.3
0	2716	92.1	15.1
0	2717	92.1	14.9
0	2718	92.1	14.7
0	2719	92.1	14.5
0	2720	92.1	14.3
0	2721	92.1	14.1
0	2722	92.1	13.9
0	2723	92.1	13.7
0	2724	92.1	13.5
0	2725	92.1	13.3
0	2726	92.1	13.1
0	2727	92.1	12.9
0	2728	92.1	12.7
0	2729	92.1	12.5
0	2730	92.1	12.3
0	2731	92.1	12.1
0	2732	92.1	11.9
0	2733	92.1	11.7
0	2734	92.1	11.5
0	2735	92.1	11.3
0	2736	92.1	11.1
0	2737	92.1	10.9
0	2738	92.1	10.7
0	2739	92.1	10.5
0	2740	92.1	10.3
0	2741	92.1	10.1
0	2742	92.1	9.9
0	2743	92.1	9.7
0	2744	92.1	9.5
0	2745	92.1	9.3
0	2746	92.1	9.1
0	2747	92.1	8.9
0	2748	92.1	8.7
0	2749	92.1	8.5
0	2750	92.1	8.3
0	5186	100.1	16.1
0	5187	100.1	15.9
0	5188	100.1	15.7
0	5189	100.1	15.5
0	5190	100.1	15.3
0	5191	100.1	15.1
0	5192	100.1	14.9
0	5193	100.1	14.7
0	5194	100.1	14.5
0	5195	100.1	14.3
0	5196	100.1	14.1
0	5197	100.1	13.9
0	5198	100.1	13.7
0	5199	100.1	13.5
0	5200	100.1	13.3
0	5201	100.1	13.1
0	5202	100.1	12.9
0	5203	100.1	12.7
0	5204	100.1	12.5
0	5205	100.1	12.3
0	5206	100.1	12.1
0	5207	100.1	11.9
0	5208	100.1	11.7
0	5209	100.1	11.5
0	5210	100.1	11.3
0	5211	100.1	11.1
0	5212	100.1	10.9
0	5213	100.1	10.7
0	5214	100.1	10.5
0	5215	100.1	10.3
0	5216	100.1	10.1
0	5217	100.1	9.9
0	5218	100.1	9.7
0	5219	100.1	9.5
0	5220	100.1	9.3
0	5221	100.1	9.1
0	5222	100.1	8.9
0	5223	100.1	8.7
0	5224	100.1	8.5
0	5225	100.1	8.3
0	5226	100.1	8.1
0	5227	100.1	7.9
0	5228	100.1	7.7
0	5229	100.1	7.5
0	5230	100.1	7.3
0	5231	100.1	7.1
0	5232	100.1	6.9
0	5233	100.1	6.7
0	5234	100.1	6.5
0	5235	100.1	6.3
0	5236	100.1	6.1
0	5237	100.1	5.9
0	5238	100.1	5.7
0	5239	100.1	5.5
0	5240	100.1	5.3
0	5241	100.1	5.1
0	5242	100.1	4.9
0	5243	100.1	4.7
0	5244	100.1	4.5
0	5245	100.1	4.3
0	5246	100.1	4.1
0	5247	100.1	3.9
0	5248	100.1	3.7
0	5249	100.1	3.5
0	5250	100.1	3.3
0	5251	100.1	3.1
0	5252	100.1	2.9
0	5253	100.1	2.7
0	5254	100.1	2.5
0	5255	100.1	2.3
0	5256	100.1	2.1
0	5257	100.1	1.9
0	5258	100.1	1.7
0	5259	100.1	1.5
0	5281	100.3	1.5
0	5303	100.5	1.5
0	5325	100.7	1.5
0	5347	100.9	1.5
0	5753	101.1	1.5
0	5809	101.3	1.5
0	5822	101.4	1.4
0	5844	101.6	1.4
0	5866	101.8	1.4
0	5891	102	1.4
0	6160	102.2	1.4
0	6188	102.4	1.4
0	6216	102.6	1.4
0	6244	102.8	1.4
0	6274	103	1.4
0	6447	103.2	1.4
0	6454	103.3	1.3
0	6465	103.5	1.3
0	6476	103.7	1.3
0	6487	103.9	1.3
0	8459	109.4	6.6
0	13717	136.6	17.6
0	13718	136.6	17.4
0	13719	136.6	17.2
0	13720	136.6	17
0	13721	136.6	16.8
0	13722	136.6	16.6
0	13723	136.6	16.4
0	13724	136.6	16.2
0	13725	136.6	16
0	13726	136.6	15.8
0	13727	136.6	15.6
0	13728	136.6	15.4
0	13729	136.6	15.2
0	13730	136.6	15
0	13731	136.6	14.8
0	13732	136.6	14.6
0	13733	136.6	14.4
0	13734	136.6	14.2
0	13735	136.6	14
0	13736	136.6	13.8
0	13737	136.6	13.6
0	13738	136.6	13.4
0	13739	136.6	13.2
0	13740	136.6	13
0	13741	136.6	12.8
0	13742	136.6	12.6
0	13743	136.6	12.4
0	13744	136.6	12.2
0	13745	136.6	12
0	13746	136.6	11.8
0	13747	136.6	11.6
0	13748	136.6	11.4
0	13749	136.6	11.2
0	13750	136.6	11
0	13751	136.6	10.8
0	13752	136.6	10.6
0	13753	136.6	10.4
0	13754	136.6	10.2
0	13755	136.6	10
0	13756	136.6	9.8
0	13757	136.6	9.6
0	13758	136.6	9.4
0	13759	136.6	9.2
0	13760	136.6	9
0	13761	136.6	8.8
0	13762	136.6	8.6
0	13763	136.6	8.4
0	13764	136.6	8.2
0	13765	136.6	8
0	13766	136.6	7.8
0	13767	136.6	7.6
0	13768	136.6	7.4
0	13769	136.6	7.2
0	13770	136.6	7
0	13771	136.6	6.8
0	13772	136.6	6.6
0	13773	136.6	6.4
0	13774	136.6	6.2
0	13775	136.6	6
0	13776	136.6	5.8
0	13777	136.6	5.6
0	13778	136.6	5.4
0	13779	136.6	5.2
0	13780	136.6	5
0	13781	136.6	4.8
0	13782	136.6	4.6
0	13783	136.6	4.4
0	13784	136.6	4.2
0	13785	136.6	4
0	13786	136.6	3.8
0	13787	136.6	3.6
0	13788	136.6	3.4
0	13789	136.6	3.2
0	13790	136.6	3
0	13791	136.6	2.8
0	13792	136.6	2.6
0	13793	136.6	2.4
0	13794	136.6	2.2
0	13795	136.6	2
0	13796	136.6	1.8
0	13797	136.6	1.6
0	13834	136.8	1.6
0	13872	137	1.6
0	13941	137.2	1.6
0	13984	137.4	1.6
0	14027	137.6	1.6
0	14070	137.8	1.6
0	14111	138	1.6
0	15473	138.2	1.6
0	15530	138.4	1.6
0	15587	138.6	1.6
0	15644	138.8	1.6
0	15703	139	1.6
0	15758	139.2	1.6
0	16541	154.1	16.3
0	16542	154.1	16.1
0	16543	154.1	15.9
0	16544	154.1	15.7
0	16545	154.1	15.5
0	16546	154.1	15.3
0	16547	154.1	15.1
0	16548	154.1	14.9
0	16549	154.1	14.7
0	16550	154.1	14.5
0	16551	154.1	14.3
0	16552	154.1	14.1
0	16553	154.1	13.9
0	16554	154.1	13.7
0	16555	154.1	13.5
0	16556	154.1	13.3
0	16557	154.1	13.1
0	16558	154.1	12.9
0	16559	154.1	12.7
0	16560	154.1	12.5
0	16561	154.1	12.3
0	16562	154.1	12.1
0	16563	154.1	11.9
0	16564	154.1	11.7
0	16565	154.1	11.5
0	16566	154.1	11.3
0	20633	212.1	126.1
0	20634	212.1	125.9
0	20635	212.1	125.7
0	20636	212.1	125.5
0	20637	212.1	125.3
0	20638	212.1	125.1
0	20639	212.1	124.9
0	20640	212.1	124.7
0	20641	212.1	124.5
0	20642	212.1	124.3
0	20643	212.1	124.1
0	20644	212.1	123.9
0	20645	212.1	123.7
0	20646	212.1	123.5
0	20647	212.1	123.3
0	20648	212.1	123.1
0	20649	212.1	122.9
0	20650	212.1	122.7
0	20651	212.1	122.5
0	20652	212.1	122.3
0	20653	212.1	122.1
0	20654	212.1	121.9
0	20655	212.1	121.7
0	20656	212.1	121.5
0	20657	212.1	121.3
0	20658	212.1	121.1
0	20659	212.1	120.9
0	20660	212.1	120.7
0	20661	212.1	120.5
0	20662	212.1	120.3
0	20663	212.1	120.1
0	20664	212.1	119.9
0	20665	212.1	119.7
0	20666	212.1	119.5
0	20667	212.1	119.3
0	20668	212.1	119.1
0	20669	212.1	118.9
0	20670	212.1	118.7
0	20671	212.1	118.5
0	20672	212.1	118.3
0	20673	212.1	118.1
0	20674	212.1	117.9
0	20675	212.1	117.7
0	20676	212.1	117.5
0	20677	212.1	117.3
0	20678	212.1	117.1
0	20679	212.1	116.9
0	20680	212.1	116.7
0	20681	212.1	116.5
0	20682	212.1	116.3
0	20683	212.1	116.1
0	20684	212.1	115.9
0	20685	212.1	115.7
0	20686	212.1	115.5
0	20687	212.1	115.3
0	20688	212.1	115.1
0	20689	212.1	114.9
0	20690	212.1	114.7
0	20691	212.1	114.5
0	20692	212.1	114.3
0	20693	212.1	114.1
0	20694	212.1	113.9
0	20695	212.1	113.7
0	20696	212.1	113.5
0	20697	212.1	109.3
0	31015	321.2	2.2
0	31016	321.2	2
0	31017	321.2	1.8
0	31018	321.2	1.6
0	31019	321.2	1.4
0	31070	322.2	219.4
0	37064	390.1	41.1
0	37065	390.1	40.9
0	37066	390.1	40.7
0	37067	390.1	40.5
0	37068	390.1	40.3
0	37069	390.1	40.1
0	37070	390.1	39.9
0	37071	390.1	39.7
0	37072	390.1	39.5
0	37073	390.1	39.3
0	37074	390.1	39.1
0	37075	390.1	38.9
0	37076	390.1	38.7
0	37077	390.1	38.5
0	37078	390.1	38.3
0	37079	390.1	38.1
0	37080	390.1	37.9
0	37081	390.1	37.7
0	37082	390.1	37.5
0	37083	390.1	37.3
0	37084	390.1	37.1
0	37085	390.1	36.9
0	37086	390.1	36.7
0	37087	390.1	36.5
0	37088	390.1	36.3
0	37089	390.1	36.1
0	37090	390.1	35.9
0	37091	390.1	35.7
0	37092	390.1	35.5
0	37093	390.1	35.3
0	37094	390.1	35.1
0	37095	390.1	34.9
0	37096	390.1	34.7
0	37097	390.1	34.5
0	37098	390.1	34.3
0	37099	390.1	34.1
0	37100	390.1	33.9
0	37101	390.1	33.7
0	37102	390.1	33.5
0	37103	390.1	33.3
0	37104	390.1	33.1
0	37105	390.1	32.9
0	37106	390.1	32.7
0	37107	390.1	32.5
0	37108	390.1	32.3
0	37109	390.1	32.1
0	37110	390.1	31.9
0	37111	390.1	31.7
0	37112	390.1	31.5
0	37113	390.1	31.3
0	37114	390.1	31.1
0	37115	390.1	30.9
0	37116	390.1	30.7
0	37117	390.1	30.5
0	37118	390.1	30.3
0	37119	390.1	30.1
0	37120	390.1	29.9
0	37121	390.1	29.7
0	37122	390.1	29.5
0	37123	390.1	29.3
0	37124	390.1	29.1
0	37125	390.1	28.9
0	37126	390.1	28.7
0	37127	390.1	28.5
0	37128	390.1	28.3
0	37129	390.1	28.1
0	37130	390.1	27.9
0	37131	390.1	27.7
0	37132	390.1	27.5
0	37133	390.1	27.3
0	37134	390.1	27.1
0	37135	390.1	26.9
0	37136	390.1	26.7
0	37137	390.1	26.5
0	37138	390.1	26.3
0	37139	390.1	26.1
0	37140	390.1	25.9
0	37141	390.1	25.7
0	37142	390.1	25.5
0	37143	390.1	25.3
0	37144	390.1	25.1
0	37145	390.1	24.9
0	37146	390.1	24.7
0	37147	390.1	24.5
0	37148	390.1	24.3
0	37149	390.1	24.1
0	37150	390.1	23.9
0	37151	390.1	23.7
0	37152	390.1	23.5
0	37153	390.1	23.3
0	37154	390.1	23.1
0	37155	390.1	22.9
0	37156	390.1	22.7
0	37157	390.1	22.5
0	37158	390.1	22.3
0	37159	390.1	22.1
0	37160	390.1	21.9
0	37161	390.1	21.7
0	37162	390.1	21.5
0	37163	390.1	21.3
0	37164	390.1	21.1
0	37165	390.1	20.9
0	37166	390.1	20.7
0	37167	390.1	20.5
0	37168	390.1	20.3
0	37169	390.1	20.1
0	37170	390.1	19.9
0	37171	390.1	19.7
0	37172	390.1	19.5
0	37173	390.1	19.3
0	37174	390.1	19.1
0	37175	390.1	18.9
0	37176	390.1	18.7
0	37177	390.1	18.5
0	37178	390.1	18.3
0	37179	390.1	18.1
0	37180	390.1	17.9
0	37181	390.1	17.7
0	37182	390.1	17.5
0	37183	390.1	17.3
0	37184	390.1	17.1
0	37185	390.1	16.9
0	37186	390.1	16.7
0	37187	390.1	16.5
0	37188	390.1	16.3
0	37189	390.1	16.1
0	37190	390.1	15.9
0	37191	390.1	15.7
0	37192	390.1	15.5
0	37193	390.1	15.3
0	37194	390.1	15.1
0	37195	390.1	14.9
0	37196	390.1	14.7
0	37197	390.1	14.5
0	37198	390.1	14.3
0	37199	390.1	14.1
0	37200	390.1	13.9
0	37201	390.1	13.7
0	37202	390.1	13.5
0	37203	390.1	13.3
0	37204	390.1	13.1
0	37205	390.1	12.9
0	37206	390.1	12.7
0	37207	390.1	12.5
0	37208	390.1	12.3
0	37209	390.1	12.1
0	37210	390.1	11.9
0	37211	390.1	11.7
0	37212	390.1	11.5
0	37213	390.1	11.3
0	37214	390.1	11.1
0	37215	390.1	10.9
0	37216	390.1	10.7
0	37217	390.1	10.5
0	37218	390.1	10.3
0	37219	390.1	10.1
0	37220	390.1	9.9
0	37221	390.1	9.7
0	37222	390.1	9.5
0	37223	390.1	9.3
0	38168	390.2	9.2
0	38169	390.2	9
0	38170	390.2	8.8
0	38171	390.2	8.6
0	38172	390.2	8.4
0	38173	390.2	8.2
0	38174	390.2	8
0	38175	390.2	7.8
0	38176	390.2	7.6
0	38177	390.2	7.4
0	38178	390.2	7.2
0	38179	390.2	7
0	38180	390.2	6.8
0	38181	390.2	6.6
0	40816	406.1	109.3
0	40817	406.1	109.1
0	40818	406.1	108.9
0	40819	406.1	108.7
0	40820	406.1	108.5
0	40821	406.1	108.3
0	40822	406.1	320.1
0	40823	406.1	319.9
0	40824	406.1	319.7
0	40825	406.1	319.5
0	40826	406.1	319.3
0	40827	406.1	319.1
0	40828	406.1	318.9
0	40829	406.1	318.7
0	40830	406.1	318.5
0	40831	406.1	318.3
0	40832	406.1	318.1
0	40833	406.1	317.9
0	40834	406.1	317.7
0	40835	406.1	317.5
0	40836	406.1	317.3
0	40837	406.1	317.1
0	40838	406.1	316.9
0	40839	406.1	316.7
0	40840	406.1	316.5
0	40841	406.1	316.3
0	40842	406.1	316.1
0	40843	406.1	315.9
0	40844	406.1	315.7
0	40845	406.1	315.5
0	40846	406.1	315.3
0	40847	406.1	315.1
0	40848	406.1	314.9
0	40849	406.1	314.7
0	40850	406.1	314.5
0	40851	406.1	314.3
0	40852	406.1	314.1
0	40853	406.1	313.9
0	40854	406.1	313.7
0	40855	406.1	313.5
0	40856	406.1	313.3
0	40857	406.1	313.1
0	40858	406.1	312.9
0	40859	406.1	312.7
0	40860	406.1	312.5
0	40861	406.1	312.3
0	40862	406.1	312.1
0	40863	406.1	311.9
0	40864	406.1	311.7
0	40865	406.1	311.5
0	40866	406.1	311.3
0	40867	406.1	311.1
0	40868	406.1	310.9
0	40869	406.1	310.7
0	40870	406.1	310.5
0	40871	406.1	310.3
0	40872	406.1	310.1
0	40873	406.1	309.9
0	40874	406.1	309.7
0	40875	406.1	309.5
0	40876	406.1	309.3
0	40877	406.1	309.1
0	40878	406.1	308.9
0	40879	406.1	308.7
0	40880	406.1	308.5
0	40881	406.1	308.3
0	40882	406.1	308.1
0	40883	406.1	307.9
0	40884	406.1	307.7
0	40885	406.1	307.5
0	42342	424.1	105.1
0	42343	424.1	104.9
0	42344	424.1	104.7
0	42345	424.1	104.5
0	42346	424.1	104.3
0	42347	424.1	321.3
0	54670	521.4	24.4
0	54671	521.4	24.2
0	54672	521.4	24
0	54673	521.4	23.8
0	54674	521.4	23.6
0	54675	521.4	23.4
0	54676	521.4	23.2
0	54677	521.4	23
0	54678	521.4	22.8
0	54679	521.4	22.6
0	54680	521.4	22.4
0	54681	521.4	22.2
0	54682	521.4	22
0	54683	521.4	21.8
0	54684	521.4	21.6
0	54685	521.4	21.4
0	54686	521.4	21.2
0	54687	521.4	21
0	54688	521.4	20.8
0	54689	521.4	20.6
0	54690	521.4	20.4
0	54691	521.4	20.2
0	54692	521.4	20
0	54693	521.4	19.8
0	54694	521.4	19.6
0	54695	521.4	19.4
0	54696	521.4	19.2
0	54697	521.4	19
0	54698	521.4	18.8
0	54699	521.4	18.6
0	54700	521.4	18.4
0	54701	521.4	18.2
0	54702	521.4	18
0	54703	521.4	17.8
0	54704	521.4	17.6
0	54705	521.4	17.4
0	54706	521.4	17.2
0	54707	521.4	17
0	54708	521.4	16.8
0	54709	521.4	16.6
0	54710	521.4	16.4
0	54711	521.4	16.2
0	54712	521.4	16
0	54713	521.4	15.8
0	54714	521.4	15.6
0	54715	521.4	15.4
0	54716	521.4	15.2
0	54717	521.4	15
0	54718	521.4	14.8
0	54719	521.4	14.6
0	54720	521.4	14.4
0	54721	521.4	14.2
0	54722	521.4	14
0	54723	521.4	13.8
0	54724	521.4	13.6
0	54725	521.4	13.4
0	54726	521.4	13.2
0	54727	521.4	13
0	54728	521.4	12.8
0	54729	521.4	12.6
0	54730	521.4	12.4
0	54731	521.4	12.2
0	54732	521.4	12
0	54733	521.4	11.8
0	54734	521.4	11.6
0	54735	521.4	11.4
0	54736	521.4	11.2
0	54737	521.4	11
0	54738	521.4	10.8
0	54739	521.4	10.6
0	54740	521.4	10.4
0	54741	521.4	10.2
0	54742	521.4	10
0	54743	521.4	9.8
0	54744	521.4	9.6
0	54745	521.4	9.4
0	54746	521.4	9.2
0	54747	521.4	9
0	54748	521.4	8.8
0	54749	521.4	8.6
0	54750	521.4	8.4
0	54751	521.4	8.2
0	54752	521.4	8
0	54753	521.4	7.8
0	54754	521.4	7.6
0	54755	521.4	7.4
0	54756	521.4	7.2
0	54757	521.4	7
0	54758	521.4	6.8
0	54759	521.4	6.6
0	54760	521.4	6.4
0	54761	521.4	6.2
0	54762	521.4	6
0	54763	521.4	5.8
0	54764	521.4	5.6
0	54765	521.4	5.4
0	54766	521.4	5.2
0	54767	521.4	5
0	54768	521.4	4.8
0	54769	521.4	4.6
0	54770	521.4	4.4
0	54771	521.4	4.2
0	54772	521.4	4
0	54773	521.4	3.8
0	54774	521.4	3.6
0	54775	521.4	3.4
0	54776	521.4	3.2
0	54777	521.4	3
0	54778	521.4	2.8
0	54779	521.4	2.6
0	54780	521.4	2.4
0	54781	521.4	2.2
0	54782	521.4	2
0	54783	521.4	1.8
0	54784	521.4	1.6
0	63547	582.1	62.1
0	63548	582.1	61.9
0	63549	582.1	61.7
0	63550	582.1	61.5
0	63551	582.1	61.3
0	63552	582.1	61.1
0	63553	582.1	60.9
0	63554	582.1	60.7
0	63555	582.1	60.5
0	63556	582.1	60.3
0	63557	582.1	60.1
0	63558	582.1	59.9
0	63559	582.1	59.7
0	63560	582.1	59.5
0	63561	582.1	59.3
0	63562	582.1	59.1
0	63563	582.1	58.9
0	63564	582.1	58.7
0	63565	582.1	58.5
0	63566	582.1	58.3
0	63567	582.1	164.1
0	63568	582.1	163.9
0	63569	582.1	163.7
0	63570	582.1	163.5
0	63571	582.1	163.3
0	63572	582.1	263.1
0	63573	582.1	163.1
0	63574	582.1	262.9
0	63575	582.1	162.9
0	63576	582.1	262.7
0	63577	582.1	162.7
0	63578	582.1	262.5
0	63579	582.1	162.5
0	63580	582.1	262.3
0	63581	582.1	162.3
0	63582	582.1	262.1
0	63583	582.1	162.1
0	63584	582.1	261.9
0	63585	582.1	161.9
0	63586	582.1	261.7
0	63587	582.1	161.7
0	63588	582.1	261.5
0	63589	582.1	161.5
0	63590	582.1	261.3
0	63591	582.1	161.3
0	63592	582.1	261.1
0	63593	582.1	161.1
0	63594	582.1	260.9
0	63595	582.1	160.9
0	63596	582.1	260.7
0	63597	582.1	160.7
0	63598	582.1	260.5
0	63599	582.1	160.5
0	63600	582.1	260.3
0	63601	582.1	160.3
0	63602	582.1	260.1
0	63603	582.1	160.1
0	63604	582.1	259.9
0	63605	582.1	159.9
0	63606	582.1	259.7
0	63607	582.1	159.7
0	63608	582.1	259.5
0	63609	582.1	159.5
0	63610	582.1	259.3
0	63611	582.1	159.3
0	63612	582.1	259.1
0	63613	582.1	159.1
0	63614	582.1	258.9
0	63615	582.1	158.9
0	63616	582.1	258.7
0	63617	582.1	158.7
0	63618	582.1	258.5
0	63619	582.1	158.5
0	63620	582.1	258.3
0	63621	582.1	158.3
0	63622	582.1	158.1
0	63623	582.1	58.1
0	63624	582.1	157.9
0	63625	582.1	57.9
0	63626	582.1	157.7
0	63627	582.1	57.7
0	63628	582.1	157.5
0	63629	582.1	57.5
0	63630	582.1	157.3
0	63631	582.1	57.3
0	63632	582.1	157.1
0	63633	582.1	57.1
0	63634	582.1	156.9
0	63635	582.1	56.9
0	63636	582.1	156.7
0	63637	582.1	56.7
0	63638	582.1	156.5
0	63639	582.1	56.5
0	63640	582.1	156.3
0	63641	582.1	56.3
0	63642	582.1	56.1
0	63643	582.1	55.9
0	63644	582.1	55.7
0	63645	582.1	55.5
0	63646	582.1	55.3
0	63647	582.1	55.1
0	63648	582.1	54.9
0	63649	582.1	54.7
0	63650	582.1	54.5
0	63651	582.1	54.3
0	63652	582.1	54.1
0	63653	582.1	53.9
0	63654	582.1	153.7
0	63655	582.1	53.7
0	63656	582.1	153.5
0	63657	582.1	53.5
0	63658	582.1	153.3
0	63659	582.1	53.3
0	63660	582.1	53.1
0	63661	582.1	52.9
0	63662	582.1	52.7
0	63663	582.1	52.5
0	63664	582.1	52.3
0	63665	582.1	52.1
0	63666	582.1	51.9
0	63667	582.1	51.7
0	63668	582.1	51.5
0	63669	582.1	51.3
0	63670	582.1	51.1
0	63671	582.1	50.9
0	63672	582.1	50.7
0	63673	582.1	50.5
0	63674	582.1	50.3
0	63675	582.1	50.1
0	63676	582.1	49.9
0	63677	582.1	49.7
0	63678	582.1	49.5
0	63679	582.1	49.3
0	63680	582.1	49.1
0	63681	582.1	48.9
0	63682	582.1	48.7
0	63683	582.1	48.5
0	63684	582.1	48.3
0	63685	582.1	48.1
0	63686	582.1	47.9
0	63687	582.1	47.7
0	63688	582.1	47.5
0	63689	582.1	47.3
0	63690	582.1	47.1
0	63691	582.1	46.9
0	63692	582.1	46.7
0	63693	582.1	46.5
0	63694	582.1	46.3
0	63695	582.1	46.1
0	63696	582.1	45.9
0	63697	582.1	45.7
0	63698	582.1	45.5
0	63699	582.1	45.3
0	63700	582.1	45.1
0	63701	582.1	44.9
0	63702	582.1	44.7
0	63703	582.1	44.5
0	63704	582.1	44.3
0	63705	582.1	44.1
0	63706	582.1	43.9
0	63707	582.1	43.7
0	63708	582.1	43.5
0	63709	582.1	43.3
0	63710	582.1	43.1
0	63711	582.1	42.9
0	63712	582.1	42.7
0	63713	582.1	42.5
0	63714	582.1	42.3
0	63715	582.1	42.1
0	63716	582.1	41.9
0	63717	582.1	41.7
0	63718	582.1	41.5
0	63719	582.1	41.3
0	63720	582.1	41.1
0	63721	582.1	40.9
0	63722	582.1	40.7
0	63723	582.1	40.5
0	63724	582.1	40.3
0	63725	582.1	40.1
0	63726	582.1	39.9
0	63727	582.1	39.7
0	63728	582.1	39.5
0	63729	582.1	39.3
0	63730	582.1	39.1
0	63731	582.1	38.9
0	63732	582.1	38.7
0	63733	582.1	38.5
0	63734	582.1	38.3
0	63735	582.1	38.1
0	63736	582.1	37.9
0	63737	582.1	37.7
0	63738	582.1	37.5
0	63739	582.1	37.3
0	63740	582.1	37.1
0	63741	582.1	36.9
0	63742	582.1	36.7
0	63743	582.1	36.5
0	63744	582.1	36.3
0	63745	582.1	36.1
0	63746	582.1	35.9
0	63747	582.1	35.7
0	63748	582.1	35.5
0	63749	582.1	35.3
0	63750	582.1	35.1
0	63751	582.1	34.9
0	63752	582.1	34.7
0	63753	582.1	34.5
0	63754	582.1	34.3
0	63755	582.1	34.1
0	63756	582.1	33.9
0	63757	582.1	33.7
0	63758	582.1	33.5
0	63759	582.1	33.3
0	63760	582.1	33.1
0	63761	582.1	32.9
0	63762	582.1	32.7
0	63763	582.1	32.5
0	63764	582.1	32.3
0	63765	582.1	32.1
0	63766	582.1	31.9
0	63767	582.1	31.7
0	63768	582.1	31.5
0	63769	582.1	31.3
0	63770	582.1	31.1
0	63771	582.1	30.9
0	63772	582.1	30.7
0	63773	582.1	30.5
0	63774	582.1	30.3
0	63775	582.1	30.1
0	63776	582.1	29.9
0	63777	582.1	29.7
0	63778	582.1	29.5
0	63779	582.1	29.3
0	63780	582.1	29.1
0	63781	582.1	28.9
0	63782	582.1	28.7
0	63783	582.1	28.5
0	63784	582.1	28.3
0	63785	582.1	28.1
0	63786	582.1	27.9
0	63787	582.1	27.7
0	63788	582.1	27.5
0	63789	582.1	27.3
0	63790	582.1	27.1
0	63791	582.1	26.9
0	63792	582.1	26.7
0	63793	582.1	26.5
0	63794	582.1	26.3
0	63795	582.1	26.1
0	63796	582.1	25.9
0	63797	582.1	25.7
0	63798	582.1	25.5
0	63799	582.1	25.3
0	63800	582.1	25.1
0	63801	582.1	24.9
0	63802	582.1	24.7
0	63803	582.1	24.5
0	63804	582.1	24.3
0	63805	582.1	24.1
0	63806	582.1	23.9
0	63807	582.1	23.7
0	63808	582.1	23.5
0	63809	582.1	23.3
0	63810	582.1	127.1
0	63811	582.1	126.9
0	63812	582.1	126.7
0	63813	582.1	126.5
0	63814	582.1	126.3
0	63815	582.1	126.1
0	63816	582.1	125.9
0	63817	582.1	125.7
0	63818	582.1	125.5
0	63819	582.1	125.3
0	63820	582.1	125.1
0	63821	582.1	124.9
0	63822	582.1	124.7
0	63823	582.1	124.5
0	63824	582.1	124.3
0	63825	582.1	124.1
0	63826	582.1	123.9
0	63827	582.1	123.7
0	63828	582.1	123.5
0	63829	582.1	123.3
0	63830	582.1	123.1
0	63831	582.1	23.1
0	63832	582.1	122.9
0	63833	582.1	22.9
0	63834	582.1	122.7
0	63835	582.1	22.7
0	63836	582.1	122.5
0	63837	582.1	22.5
0	63838	582.1	122.3
0	63839	582.1	22.3
0	63840	582.1	122.1
0	63841	582.1	22.1
0	63842	582.1	121.9
0	63843	582.1	21.9
0	63844	582.1	121.7
0	63845	582.1	21.7
0	63846	582.1	121.5
0	63847	582.1	21.5
0	63848	582.1	121.3
0	63849	582.1	21.3
0	63850	582.1	121.1
0	63851	582.1	21.1
0	63852	582.1	120.9
0	63853	582.1	20.9
0	63854	582.1	120.7
0	63855	582.1	20.7
0	63856	582.1	120.5
0	63857	582.1	20.5
0	63858	582.1	120.3
0	63859	582.1	20.3
0	63860	582.1	120.1
0	63861	582.1	20.1
0	63862	582.1	119.9
0	63863	582.1	19.9
0	63864	582.1	119.7
0	63865	582.1	19.7
0	63866	582.1	119.5
0	63867	582.1	19.5
0	63868	582.1	119.3
0	63869	582.1	19.3
0	63870	582.1	119.1
0	63871	582.1	19.1
0	63872	582.1	118.9
0	63873	582.1	18.9
0	63874	582.1	118.7
0	63875	582.1	18.7
0	63876	582.1	118.5
0	63877	582.1	18.5
0	63878	582.1	118.3
0	63879	582.1	18.3
0	63880	582.1	18.1
0	63881	582.1	17.9
0	63882	582.1	17.7
0	63883	582.1	17.5
0	63884	582.1	17.3
0	63885	582.1	17.1
0	63886	582.1	16.9
0	63887	582.1	16.7
0	63888	582.1	16.5
0	63889	582.1	16.3
0	63890	582.1	16.1
0	63891	582.1	15.9
0	63892	582.1	15.7
0	63893	582.1	15.5
0	63894	582.1	15.3
0	63895	582.1	15.1
0	63896	582.1	14.9
0	63897	582.1	14.7
0	63898	582.1	14.5
0	63899	582.1	14.3
0	63900	582.1	14.1
0	63901	582.1	13.9
0	63902	582.1	13.7
0	63903	582.1	13.5
0	63904	582.1	13.3
0	63905	582.1	13.1
0	63906	582.1	12.9
0	63907	582.1	12.7
0	63908	582.1	12.5
0	63909	582.1	12.3
0	63910	582.1	12.1
0	63911	582.1	11.9
0	63912	582.1	11.7
0	63913	582.1	11.5
0	63914	582.1	11.3
0	63915	582.1	111.1
0	63916	582.1	11.1
0	63917	582.1	110.9
0	63918	582.1	10.9
0	63919	582.1	110.7
0	63920	582.1	10.7
0	63921	582.1	110.5
0	63922	582.1	10.5
0	63923	582.1	110.3
0	63924	582.1	10.3
0	63925	582.1	10.1
0	63926	582.1	9.9
0	63927	582.1	9.7
0	63928	582.1	9.5
0	63929	582.1	9.3
0	63930	582.1	9.1
0	63931	582.1	8.9
0	63932	582.1	8.7
0	63933	582.1	8.5
0	63934	582.1	8.3
0	63935	582.1	8.1
0	63936	582.1	7.9
0	63937	582.1	7.7
0	63938	582.1	7.5
0	63939	582.1	7.3
0	63940	582.1	110.1
0	63941	582.1	109.9
0	63942	582.1	109.7
0	63943	582.1	109.5
0	63944	582.1	109.3
0	63945	582.1	109.1
0	63946	582.1	108.9
0	63947	582.1	108.7
0	63948	582.1	108.5
0	63949	582.1	108.3
0	63950	582.1	108.1
0	63951	582.1	107.9
0	63952	582.1	107.7
0	63953	582.1	107.5
0	63954	582.1	107.3
0	63955	582.1	107.1
0	63956	582.1	7.1
0	63957	582.1	106.9
0	63958	582.1	6.9
0	63959	582.1	106.7
0	63960	582.1	6.7
0	63961	582.1	106.5
0	63962	582.1	6.5
0	63963	582.1	106.3
0	63964	582.1	6.3
0	63965	582.1	6.1
0	63966	582.1	5.9
0	63967	582.1	5.7
0	63968	582.1	5.5
0	63969	582.1	5.3
0	63970	582.1	5.1
0	63971	582.1	4.9
0	63972	582.1	4.7
0	63973	582.1	4.5
0	63974	582.1	4.3
0	63975	582.1	4.1
0	63976	582.1	3.9
0	63977	582.1	3.7
0	63978	582.1	3.5
0	63979	582.1	3.3
0	63980	582.1	3.1
0	63981	582.1	2.9
0	63982	582.1	2.7
0	63983	582.1	2.5
0	63984	582.1	2.3
0	63985	582.1	2.1
0	63986	582.1	1.9
0	63987	582.1	1.7
0	63988	582.1	1.5
0	64016	582.2	1.4
0	64132	583.4	2.4
0	64133	583.4	2.2
0	64134	583.4	2
0	64135	583.4	1.8
0	64136	583.4	1.6
0	64137	583.4	1.4
0	64158	583.6	1.4
0	64179	583.8	1.4
0	64198	584	1.4
0	64217	584.2	1.4
0	64235	584.4	1.4
0	64253	584.6	1.4
0	64271	584.8	1.4
0	64290	585	1.4
0	71082	661.4	12.4
0	71083	661.4	12.2
0	71084	661.4	12
0	71085	661.4	11.8
0	71086	661.4	11.6
0	71087	661.4	11.4
0	71088	661.4	11.2
0	71089	661.4	11
0	71090	661.4	10.8
0	71091	661.4	10.6
0	71092	661.4	10.4
0	71093	661.4	10.2
0	71094	661.4	10
0	71095	661.4	9.8
0	71096	661.4	9.6
0	71097	661.4	9.4
0	71098	661.4	9.2
0	71099	661.4	9
0	71100	661.4	8.8
0	71101	661.4	8.6
0	71102	661.4	8.4
0	71103	661.4	8.2
0	71104	661.4	8
0	71105	661.4	7.8
0	71106	661.4	7.6
0	71107	661.4	7.4
0	71108	661.4	7.2
0	71109	661.4	7
0	71110	661.4	6.8
0	71111	661.4	6.6
0	71112	661.4	6.4
0	71113	661.4	6.2
0	71114	661.4	6
0	71115	661.4	5.8
0	71116	661.4	5.6
0	71117	661.4	5.4
0	71118	661.4	5.2
0	71119	661.4	5
0	71120	661.4	4.8
0	71121	661.4	4.6
0	71122	661.4	4.4
0	71123	661.4	4.2
0	71124	661.4	4
0	71125	661.4	3.8
0	71126	661.4	3.6
0	71127	661.4	3.4
0	71128	661.4	3.2
0	71129	661.4	3
0	71130	661.4	2.8
0	71131	661.4	2.6
0	71132	661.4	2.4
0	71133	661.4	2.2
0	71134	661.4	2
0	71135	661.4	1.8
0	71136	661.4	1.6
0	71137	661.4	1.4
0	71436	661.6	1.4
0	71460	661.8	1.4
0	71487	662	1.4
0	75930	689.1	169.1
0	75931	689.1	168.9
0	75932	689.1	168.7
0	75933	689.1	168.5
0	75934	689.1	168.3
0	75935	689.1	168.1
0	75936	689.1	167.9
0	75937	689.1	167.7
0	75938	689.1	167.5
0	75939	689.1	167.3
0	75940	689.1	167.1
0	75941	689.1	166.9
0	75942	689.1	166.7
0	75943	689.1	166.5
0	75944	689.1	166.3
0	75945	689.1	166.1
0	75946	689.1	165.9
0	75947	689.1	165.7
0	75948	689.1	165.5
0	75949	689.1	165.3
0	75950	689.1	271.1
0	75951	689.1	270.9
0	75952	689.1	270.7
0	75953	689.1	270.5
0	75954	689.1	270.3
0	75955	689.1	370.1
0	75956	689.1	270.1
0	75957	689.1	369.9
0	75958	689.1	269.9
0	75959	689.1	369.7
0	75960	689.1	269.7
0	75961	689.1	369.5
0	75962	689.1	269.5
0	75963	689.1	369.3
0	75964	689.1	269.3
0	75965	689.1	369.1
0	75966	689.1	269.1
0	75967	689.1	368.9
0	75968	689.1	268.9
0	75969	689.1	368.7
0	75970	689.1	268.7
0	75971	689.1	368.5
0	75972	689.1	268.5
0	75973	689.1	368.3
0	75974	689.1	268.3
0	75975	689.1	368.1
0	75976	689.1	268.1
0	75977	689.1	367.9
0	75978	689.1	267.9
0	75979	689.1	367.7
0	75980	689.1	267.7
0	75981	689.1	367.5
0	75982	689.1	267.5
0	75983	689.1	367.3
0	75984	689.1	267.3
0	75985	689.1	367.1
0	75986	689.1	267.1
0	75987	689.1	366.9
0	75988	689.1	266.9
0	75989	689.1	366.7
0	75990	689.1	266.7
0	75991	689.1	366.5
0	75992	689.1	266.5
0	75993	689.1	366.3
0	75994	689.1	266.3
0	75995	689.1	366.1
0	75996	689.1	266.1
0	75997	689.1	365.9
0	75998	689.1	265.9
0	75999	689.1	365.7
0	76000	689.1	265.7
0	76001	689.1	365.5
0	76002	689.1	265.5
0	76003	689.1	365.3
0	76004	689.1	265.3
0	76005	689.1	265.1
0	76006	689.1	165.1
0	76007	689.1	264.9
0	76008	689.1	164.9
0	76009	689.1	264.7
0	76010	689.1	164.7
0	76011	689.1	264.5
0	76012	689.1	164.5
0	76013	689.1	264.3
0	76014	689.1	164.3
0	76015	689.1	264.1
0	76016	689.1	164.1
0	76017	689.1	263.9
0	76018	689.1	163.9
0	76019	689.1	263.7
0	76020	689.1	163.7
0	76021	689.1	263.5
0	76022	689.1	163.5
0	76023	689.1	263.3
0	76024	689.1	163.3
0	76025	689.1	163.1
0	76026	689.1	162.9
0	76027	689.1	162.7
0	76028	689.1	162.5
0	76029	689.1	162.3
0	76030	689.1	162.1
0	76031	689.1	161.9
0	76032	689.1	161.7
0	76033	689.1	161.5
0	76034	689.1	161.3
0	76035	689.1	161.1
0	76036	689.1	160.9
0	76037	689.1	260.7
0	76038	689.1	160.7
0	76039	689.1	260.5
0	76040	689.1	160.5
0	76041	689.1	260.3
0	76042	689.1	160.3
0	76043	689.1	160.1
0	76044	689.1	159.9
0	76045	689.1	159.7
0	76046	689.1	159.5
0	76047	689.1	159.3
0	76048	689.1	159.1
0	76049	689.1	158.9
0	76050	689.1	158.7
0	76051	689.1	158.5
0	76052	689.1	158.3
0	76053	689.1	158.1
0	76054	689.1	157.9
0	76055	689.1	157.7
0	76056	689.1	157.5
0	76057	689.1	157.3
0	76058	689.1	157.1
0	76059	689.1	156.9
0	76060	689.1	156.7
0	76061	689.1	156.5
0	76062	689.1	156.3
0	76063	689.1	156.1
0	76064	689.1	155.9
0	76065	689.1	155.7
0	76066	689.1	155.5
0	76067	689.1	155.3
0	76068	689.1	155.1
0	76069	689.1	154.9
0	76070	689.1	154.7
0	76071	689.1	154.5
0	76072	689.1	154.3
0	76073	689.1	154.1
0	76074	689.1	153.9
0	76075	689.1	153.7
0	76076	689.1	153.5
0	76077	689.1	153.3
0	76078	689.1	153.1
0	76079	689.1	152.9
0	76080	689.1	152.7
0	76081	689.1	152.5
0	76082	689.1	152.3
0	76083	689.1	152.1
0	76084	689.1	151.9
0	76085	689.1	151.7
0	76086	689.1	151.5
0	76087	689.1	151.3
0	76088	689.1	151.1
0	76089	689.1	150.9
0	76090	689.1	150.7
0	76091	689.1	150.5
0	76092	689.1	150.3
0	76093	689.1	150.1
0	76094	689.1	149.9
0	76095	689.1	149.7
0	76096	689.1	149.5
0	76097	689.1	149.3
0	76098	689.1	149.1
0	76099	689.1	148.9
0	76100	689.1	148.7
0	76101	689.1	148.5
0	76102	689.1	148.3
0	76103	689.1	148.1
0	76104	689.1	147.9
0	76105	689.1	147.7
0	76106	689.1	147.5
0	76107	689.1	147.3
0	76108	689.1	147.1
0	76109	689.1	146.9
0	76110	689.1	146.7
0	76111	689.1	146.5
0	76112	689.1	146.3
0	76113	689.1	146.1
0	76114	689.1	145.9
0	76115	689.1	145.7
0	76116	689.1	145.5
0	76117	689.1	145.3
0	76118	689.1	145.1
0	76119	689.1	144.9
0	76120	689.1	144.7
0	76121	689.1	144.5
0	76122	689.1	144.3
0	76123	689.1	144.1
0	76124	689.1	143.9
0	76125	689.1	143.7
0	76126	689.1	143.5
0	76127	689.1	143.3
0	76128	689.1	143.1
0	76129	689.1	142.9
0	76130	689.1	142.7
0	76131	689.1	142.5
0	76132	689.1	142.3
0	76133	689.1	142.1
0	76134	689.1	141.9
0	76135	689.1	141.7
0	76136	689.1	141.5
0	76137	689.1	141.3
0	76138	689.1	141.1
0	76139	689.1	140.9
0	76140	689.1	140.7
0	76141	689.1	140.5
0	76142	689.1	140.3
0	76143	689.1	140.1
0	76144	689.1	139.9
0	76145	689.1	139.7
0	76146	689.1	139.5
0	76147	689.1	139.3
0	76148	689.1	139.1
0	76149	689.1	138.9
0	76150	689.1	138.7
0	76151	689.1	138.5
0	76152	689.1	138.3
0	76153	689.1	138.1
0	76154	689.1	137.9
0	76155	689.1	137.7
0	76156	689.1	137.5
0	76157	689.1	137.3
0	76158	689.1	137.1
0	76159	689.1	136.9
0	76160	689.1	136.7
0	76161	689.1	136.5
0	76162	689.1	136.3
0	76163	689.1	136.1
0	76164	689.1	135.9
0	76165	689.1	135.7
0	76166	689.1	135.5
0	76167	689.1	135.3
0	76168	689.1	135.1
0	76169	689.1	134.9
0	76170	689.1	134.7
0	76171	689.1	134.5
0	76172	689.1	134.3
0	76173	689.1	134.1
0	76174	689.1	133.9
0	76175	689.1	133.7
0	76176	689.1	133.5
0	76177	689.1	133.3
0	76178	689.1	133.1
0	76179	689.1	132.9
0	76180	689.1	132.7
0	76181	689.1	132.5
0	76182	689.1	132.3
0	76183	689.1	132.1
0	76184	689.1	131.9
0	76185	689.1	131.7
0	76186	689.1	131.5
0	76187	689.1	131.3
0	76188	689.1	131.1
0	76189	689.1	130.9
0	76190	689.1	130.7
0	76191	689.1	130.5
0	76192	689.1	130.3
0	76193	689.1	234.1
0	76194	689.1	233.9
0	76195	689.1	233.7
0	76196	689.1	233.5
0	76197	689.1	233.3
0	76198	689.1	233.1
0	76199	689.1	232.9
0	76200	689.1	232.7
0	76201	689.1	232.5
0	76202	689.1	232.3
0	76203	689.1	232.1
0	76204	689.1	231.9
0	76205	689.1	231.7
0	76206	689.1	231.5
0	76207	689.1	231.3
0	76208	689.1	231.1
0	76209	689.1	230.9
0	76210	689.1	230.7
0	76211	689.1	230.5
0	76212	689.1	230.3
0	76213	689.1	230.1
0	76214	689.1	130.1
0	76215	689.1	229.9
0	76216	689.1	129.9
0	76217	689.1	229.7
0	76218	689.1	129.7
0	76219	689.1	229.5
0	76220	689.1	129.5
0	76221	689.1	229.3
0	76222	689.1	129.3
0	76223	689.1	229.1
0	76224	689.1	129.1
0	76225	689.1	228.9
0	76226	689.1	128.9
0	76227	689.1	228.7
0	76228	689.1	128.7
0	76229	689.1	228.5
0	76230	689.1	128.5
0	76231	689.1	228.3
0	76232	689.1	128.3
0	76233	689.1	228.1
0	76234	689.1	128.1
0	76235	689.1	227.9
0	76236	689.1	127.9
0	76237	689.1	227.7
0	76238	689.1	127.7
0	76239	689.1	227.5
0	76240	689.1	127.5
0	76241	689.1	227.3
0	76242	689.1	127.3
0	76243	689.1	227.1
0	76244	689.1	127.1
0	76245	689.1	226.9
0	76246	689.1	126.9
0	76247	689.1	226.7
0	76248	689.1	126.7
0	76249	689.1	226.5
0	76250	689.1	126.5
0	76251	689.1	226.3
0	76252	689.1	126.3
0	76253	689.1	226.1
0	76254	689.1	126.1
0	76255	689.1	225.9
0	76256	689.1	125.9
0	76257	689.1	225.7
0	76258	689.1	125.7
0	76259	689.1	225.5
0	76260	689.1	125.5
0	76261	689.1	225.3
0	76262	689.1	125.3
0	76263	689.1	125.1
0	76264	689.1	124.9
0	76265	689.1	124.7
0	76266	689.1	124.5
0	76267	689.1	124.3
0	76268	689.1	124.1
0	76269	689.1	123.9
0	76270	689.1	123.7
0	76271	689.1	123.5
0	76272	689.1	123.3
0	76273	689.1	123.1
0	76274	689.1	122.9
0	76275	689.1	122.7
0	76276	689.1	122.5
0	76277	689.1	122.3
0	76278	689.1	122.1
0	76279	689.1	121.9
0	76280	689.1	121.7
0	76281	689.1	121.5
0	76282	689.1	121.3
0	76283	689.1	121.1
0	76284	689.1	120.9
0	76285	689.1	120.7
0	76286	689.1	120.5
0	76287	689.1	120.3
0	76288	689.1	120.1
0	76289	689.1	119.9
0	76290	689.1	119.7
0	76291	689.1	119.5
0	76292	689.1	119.3
0	76293	689.1	119.1
0	76294	689.1	118.9
0	76295	689.1	118.7
0	76296	689.1	118.5
0	76297	689.1	118.3
0	76298	689.1	218.1
0	76299	689.1	118.1
0	76300	689.1	217.9
0	76301	689.1	117.9
0	76302	689.1	217.7
0	76303	689.1	117.7
0	76304	689.1	217.5
0	76305	689.1	117.5
0	76306	689.1	217.3
0	76307	689.1	117.3
0	76308	689.1	117.1
0	76309	689.1	116.9
0	76310	689.1	116.7
0	76311	689.1	116.5
0	76312	689.1	116.3
0	76313	689.1	116.1
0	76314	689.1	115.9
0	76315	689.1	115.7
0	76316	689.1	115.5
0	76317	689.1	115.3
0	76318	689.1	115.1
0	76319	689.1	114.9
0	76320	689.1	114.7
0	76321	689.1	114.5
0	76322	689.1	114.3
0	76323	689.1	217.1
0	76324	689.1	216.9
0	76325	689.1	216.7
0	76326	689.1	216.5
0	76327	689.1	216.3
0	76328	689.1	216.1
0	76329	689.1	215.9
0	76330	689.1	215.7
0	76331	689.1	215.5
0	76332	689.1	215.3
0	76333	689.1	215.1
0	76334	689.1	214.9
0	76335	689.1	214.7
0	76336	689.1	214.5
0	76337	689.1	214.3
0	76338	689.1	214.1
0	76339	689.1	114.1
0	76340	689.1	213.9
0	76341	689.1	113.9
0	76342	689.1	213.7
0	76343	689.1	113.7
0	76344	689.1	213.5
0	76345	689.1	113.5
0	76346	689.1	213.3
0	76347	689.1	113.3
0	76348	689.1	113.1
0	76349	689.1	112.9
0	76350	689.1	112.7
0	76351	689.1	112.5
0	76352	689.1	112.3
0	76353	689.1	112.1
0	76354	689.1	111.9
0	76355	689.1	111.7
0	76356	689.1	111.5
0	76357	689.1	111.3
0	76358	689.1	111.1
0	76359	689.1	110.9
0	76360	689.1	110.7
0	76361	689.1	110.5
0	76362	689.1	110.3
0	76363	689.1	110.1
0	76364	689.1	109.9
0	76365	689.1	109.7
0	76366	689.1	109.5
0	76367	689.1	109.3
0	76368	689.1	109.1
0	76369	689.1	108.9
0	76370	689.1	108.7
0	76371	689.1	108.5
0	76372	689.1	108.3
0	76373	689.1	108.1
0	76374	689.1	107.9
0	76375	689.1	107.7
0	76376	689.1	107.5
0	76377	689.1	107.3
0	76378	689.1	107.1
0	76379	689.1	106.9
0	76380	689.1	106.7
0	76381	689.1	106.5
0	76382	689.1	106.3
0	76383	689.1	106.1
0	76384	689.1	105.9
0	76385	689.1	105.7
0	76386	689.1	105.5
0	90502	712.1	43.1
0	90503	712.1	42.9
0	90504	712.1	42.7
0	90505	712.1	42.5
0	90506	712.1	42.3
0	90507	712.1	42.1
0	90508	712.1	41.9
0	90509	712.1	41.7
0	90510	712.1	41.5
0	90511	712.1	41.3
0	90512	712.1	41.1
0	90513	712.1	40.9
0	90514	712.1	40.7
0	90515	712.1	40.5
0	90516	712.1	40.3
0	90517	712.1	40.1
0	90518	712.1	39.9
0	90519	712.1	39.7
0	90520	712.1	39.5
0	90521	712.1	39.3
0	90522	712.1	39.1
0	90523	712.1	38.9
0	90524	712.1	38.7
0	90525	712.1	38.5
0	90526	712.1	38.3
0	90527	712.1	38.1
0	90528	712.1	37.9
0	90529	712.1	37.7
0	90530	712.1	37.5
0	90531	712.1	37.3
0	90532	712.1	37.1
0	90533	712.1	36.9
0	90534	712.1	36.7
0	90535	712.1	36.5
0	90536	712.1	36.3
0	90537	712.1	36.1
0	90538	712.1	35.9
0	90539	712.1	35.7
0	90540	712.1	35.5
0	90541	712.1	35.3
0	90542	712.1	35.1
0	90543	712.1	34.9
0	90544	712.1	34.7
0	90545	712.1	34.5
0	90546	712.1	34.3
0	90547	712.1	34.1
0	90548	712.1	33.9
0	90549	712.1	33.7
0	90550	712.1	33.5
0	90551	712.1	33.3
0	90552	712.1	33.1
0	90553	712.1	32.9
0	90554	712.1	32.7
0	90555	712.1	32.5
0	90556	712.1	32.3
0	90557	712.1	32.1
0	90558	712.1	31.9
0	90559	712.1	31.7
0	90560	712.1	31.5
0	90561	712.1	31.3
0	90562	712.1	31.1
0	90563	712.1	30.9
0	90564	712.1	30.7
0	90565	712.1	30.5
0	90566	712.1	30.3
0	90567	712.1	30.1
0	90568	712.1	29.9
0	90569	712.1	29.7
0	90570	712.1	29.5
0	90571	712.1	29.3
0	90572	712.1	29.1
0	90573	712.1	28.9
0	90574	712.1	28.7
0	90575	712.1	28.5
0	90576	712.1	28.3
0	90577	712.1	28.1
0	90578	712.1	27.9
0	90579	712.1	27.7
0	90580	712.1	27.5
0	90581	712.1	27.3
0	90582	712.1	27.1
0	90583	712.1	26.9
0	90584	712.1	26.7
0	90585	712.1	26.5
0	90586	712.1	26.3
0	90587	712.1	26.1
0	90588	712.1	25.9
0	90589	712.1	25.7
0	90590	712.1	25.5
0	90591	712.1	25.3
0	90592	712.1	25.1
0	90593	712.1	24.9
0	90594	712.1	24.7
0	90595	712.1	24.5
0	90596	712.1	24.3
0	90597	712.1	24.1
0	90598	712.1	23.9
0	90599	712.1	23.7
0	90600	712.1	23.5
0	90601	712.1	23.3
0	90602	712.1	23.1
0	90603	712.1	22.9
0	90604	712.1	22.7
0	90605	712.1	22.5
0	90606	712.1	22.3
0	90607	712.1	22.1
0	90608	712.1	21.9
0	90609	712.1	21.7
0	90610	712.1	21.5
0	90611	712.1	21.3
0	90612	712.1	21.1
0	90613	712.1	20.9
0	90614	712.1	20.7
0	90615	712.1	20.5
0	90616	712.1	20.3
0	90617	712.1	20.1
0	90618	712.1	19.9
0	90619	712.1	19.7
0	90620	712.1	19.5
0	90621	712.1	19.3
0	90622	712.1	19.1
0	90623	712.1	18.9
0	90624	712.1	18.7
0	90625	712.1	18.5
0	90626	712.1	18.3
0	90627	712.1	18.1
0	90628	712.1	17.9
0	90629	712.1	17.7
0	90630	712.1	17.5
0	90631	712.1	17.3
0	90632	712.1	17.1
0	90633	712.1	16.9
0	90634	712.1	16.7
0	90635	712.1	16.5
0	90636	712.1	16.3
0	90637	712.1	16.1
0	90638	712.1	15.9
0	90639	712.1	15.7
0	90640	712.1	15.5
0	90641	712.1	15.3
0	90642	712.1	15.1
0	90643	712.1	14.9
0	90644	712.1	14.7
0	90645	712.1	14.5
0	90646	712.1	14.3
0	90647	712.1	14.1
0	90648	712.1	13.9
0	90649	712.1	13.7
0	90650	712.1	13.5
0	90651	712.1	13.3
0	90652	712.1	13.1
0	90653	712.1	12.9
0	90654	712.1	12.7
0	90655	712.1	12.5
0	90656	712.1	12.3
0	90657	712.1	12.1
0	90658	712.1	11.9
0	90659	712.1	11.7
0	90660	712.1	11.5
0	90661	712.1	11.3
0	90662	712.1	11.1
0	90663	712.1	10.9
0	90664	712.1	10.7
0	90665	712.1	10.5
0	90666	712.1	10.3
0	90667	712.1	10.1
0	90668	712.1	9.9
0	90669	712.1	9.7
0	90670	712.1	9.5
0	90671	712.1	9.3
0	90672	712.1	9.1
0	90673	712.1	8.9
0	90674	712.1	8.7
0	90675	712.1	8.5
0	90676	712.1	8.3
0	90677	712.1	192.1
0	90678	712.1	191.9
0	90679	712.1	191.7
0	90680	712.1	191.5
0	90681	712.1	191.3
0	90682	712.1	191.1
0	90683	712.1	190.9
0	90684	712.1	190.7
0	90685	712.1	190.5
0	90686	712.1	190.3
0	90687	712.1	190.1
0	90688	712.1	189.9
0	90689	712.1	189.7
0	90690	712.1	189.5
0	90691	712.1	189.3
0	90692	712.1	189.1
0	90693	712.1	188.9
0	90694	712.1	188.7
0	90695	712.1	188.5
0	90696	712.1	188.3
0	90697	712.1	294.1
0	90698	712.1	293.9
0	90699	712.1	293.7
0	90700	712.1	293.5
0	90701	712.1	293.3
0	90702	712.1	393.1
0	90703	712.1	293.1
0	90704	712.1	392.9
0	90705	712.1	292.9
0	90706	712.1	392.7
0	90707	712.1	292.7
0	90708	712.1	392.5
0	90709	712.1	292.5
0	90710	712.1	392.3
0	90711	712.1	292.3
0	90712	712.1	392.1
0	90713	712.1	292.1
0	90714	712.1	391.9
0	90715	712.1	291.9
0	90716	712.1	391.7
0	90717	712.1	291.7
0	90718	712.1	391.5
0	90719	712.1	291.5
0	90720	712.1	391.3
0	90721	712.1	291.3
0	90722	712.1	391.1
0	90723	712.1	291.1
0	90724	712.1	390.9
0	90725	712.1	290.9
0	90726	712.1	390.7
0	90727	712.1	290.7
0	90728	712.1	390.5
0	90729	712.1	290.5
0	90730	712.1	390.3
0	90731	712.1	290.3
0	90732	712.1	390.1
0	90733	712.1	290.1
0	90734	712.1	389.9
0	90735	712.1	289.9
0	90736	712.1	389.7
0	90737	712.1	289.7
0	90738	712.1	389.5
0	90739	712.1	289.5
0	90740	712.1	389.3
0	90741	712.1	289.3
0	90742	712.1	389.1
0	90743	712.1	289.1
0	90744	712.1	388.9
0	90745	712.1	288.9
0	90746	712.1	388.7
0	90747	712.1	288.7
0	90748	712.1	388.5
0	90749	712.1	288.5
0	90750	712.1	388.3
0	90751	712.1	288.3
0	90752	712.1	288.1
0	90753	712.1	188.1
0	90754	712.1	287.9
0	90755	712.1	187.9
0	90756	712.1	287.7
0	90757	712.1	187.7
0	90758	712.1	287.5
0	90759	712.1	187.5
0	90760	712.1	287.3
0	90761	712.1	187.3
0	90762	712.1	287.1
0	90763	712.1	187.1
0	90764	712.1	286.9
0	90765	712.1	186.9
0	90766	712.1	286.7
0	90767	712.1	186.7
0	90768	712.1	286.5
0	90769	712.1	186.5
0	90770	712.1	286.3
0	90771	712.1	186.3
0	90772	712.1	186.1
0	90773	712.1	185.9
0	90774	712.1	185.7
0	90775	712.1	185.5
0	90776	712.1	185.3
0	90777	712.1	185.1
0	90778	712.1	184.9
0	90779	712.1	184.7
0	90780	712.1	184.5
0	90781	712.1	184.3
0	90782	712.1	184.1
0	90783	712.1	183.9
0	90784	712.1	283.7
0	90785	712.1	183.7
0	90786	712.1	283.5
0	90787	712.1	183.5
0	90788	712.1	283.3
0	90789	712.1	183.3
0	90790	712.1	183.1
0	90791	712.1	182.9
0	90792	712.1	182.7
0	90793	712.1	182.5
0	90794	712.1	182.3
0	90795	712.1	182.1
0	90796	712.1	181.9
0	90797	712.1	181.7
0	90798	712.1	181.5
0	90799	712.1	181.3
0	90800	712.1	181.1
0	90801	712.1	180.9
0	90802	712.1	180.7
0	90803	712.1	180.5
0	90804	712.1	180.3
0	90805	712.1	180.1
0	90806	712.1	179.9
0	90807	712.1	179.7
0	90808	712.1	179.5
0	90809	712.1	179.3
0	90810	712.1	179.1
0	90811	712.1	178.9
0	90812	712.1	178.7
0	90813	712.1	178.5
0	90814	712.1	178.3
0	90815	712.1	178.1
0	90816	712.1	177.9
0	90817	712.1	177.7
0	90818	712.1	177.5
0	90819	712.1	177.3
0	90820	712.1	177.1
0	90821	712.1	176.9
0	90822	712.1	176.7
0	90823	712.1	176.5
0	90824	712.1	176.3
0	90825	712.1	176.1
0	90826	712.1	175.9
0	90827	712.1	175.7
0	90828	712.1	175.5
0	90829	712.1	175.3
0	90830	712.1	175.1
0	90831	712.1	174.9
0	90832	712.1	174.7
0	90833	712.1	174.5
0	90834	712.1	174.3
0	90835	712.1	174.1
0	90836	712.1	173.9
0	90837	712.1	173.7
0	90838	712.1	173.5
0	90839	712.1	173.3
0	90840	712.1	173.1
0	90841	712.1	172.9
0	90842	712.1	172.7
0	90843	712.1	172.5
0	90844	712.1	172.3
0	90845	712.1	172.1
0	90846	712.1	171.9
0	90847	712.1	171.7
0	90848	712.1	171.5
0	90849	712.1	171.3
0	90850	712.1	171.1
0	90851	712.1	170.9
0	90852	712.1	170.7
0	90853	712.1	170.5
0	90854	712.1	170.3
0	90855	712.1	170.1
0	90856	712.1	169.9
0	90857	712.1	169.7
0	90858	712.1	169.5
0	90859	712.1	169.3
0	90860	712.1	169.1
0	90861	712.1	168.9
0	90862	712.1	168.7
0	90863	712.1	168.5
0	90864	712.1	168.3
0	90865	712.1	168.1
0	90866	712.1	167.9
0	90867	712.1	167.7
0	90868	712.1	167.5
0	90869	712.1	167.3
0	90870	712.1	167.1
0	90871	712.1	166.9
0	90872	712.1	166.7
0	90873	712.1	166.5
0	90874	712.1	166.3
0	90875	712.1	166.1
0	90876	712.1	165.9
0	90877	712.1	165.7
0	90878	712.1	165.5
0	90879	712.1	165.3
0	90880	712.1	165.1
0	90881	712.1	164.9
0	90882	712.1	164.7
0	90883	712.1	164.5
0	90884	712.1	164.3
0	90885	712.1	164.1
0	90886	712.1	163.9
0	90887	712.1	163.7
0	90888	712.1	163.5
0	90889	712.1	163.3
0	90890	712.1	163.1
0	90891	712.1	162.9
0	90892	712.1	162.7
0	90893	712.1	162.5
0	90894	712.1	162.3
0	90895	712.1	162.1
0	90896	712.1	161.9
0	90897	712.1	161.7
0	90898	712.1	161.5
0	90899	712.1	161.3
0	90900	712.1	161.1
0	90901	712.1	160.9
0	90902	712.1	160.7
0	90903	712.1	160.5
0	90904	712.1	160.3
0	90905	712.1	160.1
0	90906	712.1	159.9
0	90907	712.1	159.7
0	90908	712.1	159.5
0	90909	712.1	159.3
0	90910	712.1	159.1
0	90911	712.1	158.9
0	90912	712.1	158.7
0	90913	712.1	158.5
0	90914	712.1	158.3
0	90915	712.1	158.1
0	90916	712.1	157.9
0	90917	712.1	157.7
0	90918	712.1	157.5
0	90919	712.1	157.3
0	90920	712.1	157.1
0	90921	712.1	156.9
0	90922	712.1	156.7
0	90923	712.1	156.5
0	90924	712.1	156.3
0	90925	712.1	156.1
0	90926	712.1	155.9
0	90927	712.1	155.7
0	90928	712.1	155.5
0	90929	712.1	155.3
0	90930	712.1	155.1
0	90931	712.1	154.9
0	90932	712.1	154.7
0	90933	712.1	154.5
0	90934	712.1	154.3
0	90935	712.1	154.1
0	90936	712.1	153.9
0	90937	712.1	153.7
0	90938	712.1	153.5
0	90939	712.1	153.3
0	90940	712.1	257.1
0	90941	712.1	256.9
0	90942	712.1	256.7
0	90943	712.1	256.5
0	90944	712.1	256.3
0	90945	712.1	256.1
0	90946	712.1	255.9
0	90947	712.1	255.7
0	90948	712.1	255.5
0	90949	712.1	255.3
0	90950	712.1	255.1
0	90951	712.1	254.9
0	90952	712.1	254.7
0	90953	712.1	254.5
0	90954	712.1	254.3
0	90955	712.1	254.1
0	90956	712.1	253.9
0	90957	712.1	253.7
0	90958	712.1	253.5
0	90959	712.1	253.3
0	90960	712.1	253.1
0	90961	712.1	153.1
0	90962	712.1	252.9
0	90963	712.1	152.9
0	90964	712.1	252.7
0	90965	712.1	152.7
0	90966	712.1	252.5
0	90967	712.1	152.5
0	90968	712.1	252.3
0	90969	712.1	152.3
0	90970	712.1	252.1
0	90971	712.1	152.1
0	90972	712.1	251.9
0	90973	712.1	151.9
0	90974	712.1	251.7
0	90975	712.1	151.7
0	90976	712.1	251.5
0	90977	712.1	151.5
0	90978	712.1	251.3
0	90979	712.1	151.3
0	90980	712.1	251.1
0	90981	712.1	151.1
0	90982	712.1	250.9
0	90983	712.1	150.9
0	90984	712.1	250.7
0	90985	712.1	150.7
0	90986	712.1	250.5
0	90987	712.1	150.5
0	90988	712.1	250.3
0	90989	712.1	150.3
0	90990	712.1	250.1
0	90991	712.1	150.1
0	90992	712.1	249.9
0	90993	712.1	149.9
0	90994	712.1	249.7
0	90995	712.1	149.7
0	90996	712.1	249.5
0	90997	712.1	149.5
0	90998	712.1	249.3
0	90999	712.1	149.3
0	91000	712.1	249.1
0	91001	712.1	149.1
0	91002	712.1	248.9
0	91003	712.1	148.9
0	91004	712.1	248.7
0	91005	712.1	148.7
0	91006	712.1	248.5
0	91007	712.1	148.5
0	91008	712.1	248.3
0	91009	712.1	148.3
0	91010	712.1	148.1
0	91011	712.1	147.9
0	91012	712.1	147.7
0	91013	712.1	147.5
0	91014	712.1	147.3
0	91015	712.1	147.1
0	91016	712.1	146.9
0	91017	712.1	146.7
0	91018	712.1	146.5
0	91019	712.1	146.3
0	91020	712.1	146.1
0	91021	712.1	145.9
0	91022	712.1	145.7
0	91023	712.1	145.5
0	91024	712.1	145.3
0	91025	712.1	145.1
0	91026	712.1	144.9
0	91027	712.1	144.7
0	91028	712.1	144.5
0	91029	712.1	144.3
0	91030	712.1	144.1
0	91031	712.1	143.9
0	91032	712.1	143.7
0	91033	712.1	143.5
0	91034	712.1	143.3
0	91035	712.1	143.1
0	91036	712.1	142.9
0	91037	712.1	142.7
0	91038	712.1	142.5
0	91039	712.1	142.3
0	91040	712.1	142.1
0	91041	712.1	141.9
0	91042	712.1	141.7
0	91043	712.1	141.5
0	91044	712.1	141.3
0	91045	712.1	141.1
0	91046	712.1	140.9
0	91047	712.1	140.7
0	91048	712.1	140.5
0	91049	712.1	140.3
0	91050	712.1	140.1
0	91051	712.1	139.9
0	91052	712.1	139.7
0	91053	712.1	139.5
0	91054	712.1	139.3
0	91055	712.1	139.1
0	91056	712.1	138.9
0	91057	712.1	138.7
0	91058	712.1	138.5
0	91059	712.1	138.3
0	91060	712.1	138.1
0	91061	712.1	137.9
0	91062	712.1	137.7
0	91063	712.1	137.5
0	91064	712.1	137.3
0	91065	712.1	137.1
0	91066	712.1	136.9
0	91067	712.1	136.7
0	91068	712.1	136.5
0	91069	712.1	136.3
0	91070	712.1	136.1
0	91071	712.1	135.9
0	91072	712.1	135.7
0	91073	712.1	135.5
0	91074	712.1	135.3
0	91075	712.1	135.1
0	91076	712.1	134.9
0	91077	712.1	134.7
0	91078	712.1	134.5
0	91079	712.1	134.3
0	91080	712.1	134.1
0	91081	712.1	133.9
0	91082	712.1	133.7
0	91083	712.1	133.5
0	91084	712.1	133.3
0	91085	712.1	133.1
0	91086	712.1	132.9
0	91087	712.1	132.7
0	91088	712.1	132.5
0	91089	712.1	132.3
0	91090	712.1	132.1
0	91091	712.1	131.9
0	91092	712.1	131.7
0	91093	712.1	131.5
0	91094	712.1	131.3
0	91095	712.1	131.1
0	91096	712.1	130.9
0	91097	712.1	130.7
0	91098	712.1	130.5
0	91099	712.1	130.3
0	91100	712.1	130.1
0	91101	712.1	129.9
0	91102	712.1	129.7
0	91103	712.1	129.5
0	91104	712.1	129.3
0	91105	712.1	129.1
0	91106	712.1	128.9
0	91107	712.1	128.7
0	91108	712.1	128.5
0	91370	713.3	9.3
0	91371	713.3	9.1
0	91372	713.3	8.9
0	91373	713.3	8.7
0	91374	713.3	8.5
0	91375	713.3	8.3
0	91376	713.3	8.1
0	91377	713.3	7.9
0	91378	713.3	7.7
0	91379	713.3	7.5
0	91380	713.3	7.3
0	91381	713.3	7.1
0	91382	713.3	6.9
0	91383	713.3	6.7
0	91384	713.3	6.5
0	91385	713.3	6.3
0	91386	713.3	6.1
0	91387	713.3	5.9
0	91388	713.3	5.7
0	91389	713.3	5.5
0	91390	713.3	5.3
0	91391	713.3	5.1
0	91392	713.3	4.9
0	91393	713.3	4.7
0	91394	713.3	4.5
0	91395	713.3	4.3
0	91396	713.3	4.1
0	91397	713.3	3.9
0	91398	713.3	3.7
0	91399	713.3	3.5
0	92528	724.1	14.1
0	92529	724.1	13.9
0	92530	724.1	13.7
0	92531	724.1	13.5
0	92532	724.1	13.3
0	92533	724.1	13.1
0	92534	724.1	12.9
0	92535	724.1	12.7
0	92536	724.1	12.5
0	92537	724.1	12.3
0	92538	724.1	12.1
0	92539	724.1	11.9
0	92540	724.1	11.7
0	92541	724.1	11.5
0	92542	724.1	11.3
0	92543	724.1	11.1
0	92544	724.1	10.9
0	92545	724.1	10.7
0	92546	724.1	10.5
0	92547	724.1	10.3
0	92548	724.1	10.1
0	92549	724.1	9.9
0	92550	724.1	9.7
0	92551	724.1	9.5
0	92552	724.1	9.3
0	92553	724.1	9.1
0	92554	724.1	8.9
0	92555	724.1	8.7
0	92556	724.1	8.5
0	92557	724.1	8.3
0	92558	724.1	8.1
0	92559	724.1	7.9
0	92560	724.1	7.7
0	92561	724.1	7.5
0	92562	724.1	7.3
0	92563	724.1	7.1
0	92564	724.1	6.9
0	92565	724.1	6.7
0	92566	724.1	6.5
0	92567	724.1	6.3
0	92568	724.1	6.1
0	92569	724.1	5.9
0	92570	724.1	5.7
0	92571	724.1	5.5
0	92572	724.1	5.3
0	92573	724.1	5.1
0	92574	724.1	4.9
0	92575	724.1	4.7
0	92576	724.1	4.5
0	93552	726.1	229.1
0	93553	726.1	228.9
0	93554	726.1	228.7
0	93555	726.1	228.5
0	93556	726.1	228.3
0	93557	726.1	228.1
0	93558	726.1	227.9
0	93559	726.1	227.7
0	93560	726.1	227.5
0	93561	726.1	227.3
0	93562	726.1	227.1
0	93563	726.1	226.9
0	93564	726.1	226.7
0	93565	726.1	226.5
0	93566	726.1	226.3
0	93567	726.1	226.1
0	93568	726.1	225.9
0	93569	726.1	225.7
0	93570	726.1	225.5
0	93571	726.1	225.3
0	93572	726.1	225.1
0	93573	726.1	224.9
0	93574	726.1	224.7
0	93575	726.1	224.5
0	93576	726.1	224.3
0	93577	726.1	224.1
0	93578	726.1	223.9
0	93579	726.1	223.7
0	93580	726.1	223.5
0	93581	726.1	223.3
0	93582	726.1	223.1
0	93583	726.1	222.9
0	93584	726.1	222.7
0	93585	726.1	222.5
0	93586	726.1	222.3
0	93587	726.1	222.1
0	93588	726.1	221.9
0	93589	726.1	221.7
0	93590	726.1	221.5
0	93591	726.1	221.3
0	93592	726.1	221.1
0	93593	726.1	220.9
0	93594	726.1	220.7
0	93595	726.1	220.5
0	93596	726.1	220.3
0	93597	726.1	220.1
0	93598	726.1	219.9
0	93599	726.1	219.7
0	93600	726.1	219.5
0	93601	726.1	219.3
0	93602	726.1	219.1
0	93603	726.1	218.9
0	93604	726.1	218.7
0	93605	726.1	218.5
0	93606	726.1	218.3
0	93607	726.1	218.1
0	93608	726.1	217.9
0	93609	726.1	217.7
0	93610	726.1	217.5
0	93611	726.1	217.3
0	93612	726.1	217.1
0	93613	726.1	216.9
0	93614	726.1	216.7
0	93615	726.1	216.5
0	93616	726.1	216.3
0	93617	726.1	216.1
0	93618	726.1	215.9
0	93619	726.1	215.7
0	93620	726.1	215.5
0	93621	726.1	215.3
0	93622	726.1	215.1
0	93623	726.1	214.9
0	93624	726.1	214.7
0	93625	726.1	214.5
0	93626	726.1	214.3
0	93627	726.1	214.1
0	93628	726.1	213.9
0	93629	726.1	213.7
0	93630	726.1	213.5
0	93631	726.1	213.3
0	93632	726.1	213.1
0	93633	726.1	212.9
0	93634	726.1	212.7
0	93635	726.1	212.5
0	93636	726.1	212.3
0	93637	726.1	212.1
0	93638	726.1	211.9
0	93639	726.1	211.7
0	93640	726.1	211.5
0	93641	726.1	211.3
0	93642	726.1	211.1
0	93643	726.1	210.9
0	93644	726.1	210.7
0	93645	726.1	210.5
0	93646	726.1	210.3
0	93647	726.1	210.1
0	93648	726.1	209.9
0	93649	726.1	209.7
0	93650	726.1	209.5
0	93651	726.1	209.3
0	93652	726.1	209.1
0	93653	726.1	208.9
0	93654	726.1	208.7
0	93655	726.1	208.5
0	93656	726.1	208.3
0	93657	726.1	208.1
0	93658	726.1	207.9
0	93659	726.1	207.7
0	93660	726.1	207.5
0	93661	726.1	207.3
0	93662	726.1	207.1
0	93663	726.1	206.9
0	93664	726.1	206.7
0	93665	726.1	206.5
0	93666	726.1	206.3
0	104867	781.2	61.4
0	104868	781.2	61.2
0	104869	781.2	61
0	104870	781.2	60.8
0	104871	781.2	60.6
0	104872	781.2	60.4
0	104873	781.2	59.2
0	104874	781.2	59
0	104875	781.2	58.8
0	104876	781.2	58.6
0	104877	781.2	58.4
0	104878	781.2	58.2
0	104879	781.2	58
0	104880	781.2	57.8
0	104881	781.2	57.6
0	104882	781.2	57.4
0	104883	781.2	57.2
0	104884	781.2	57
0	104885	781.2	56.8
0	104886	781.2	56.6
0	104887	781.2	56.4
0	104888	781.2	56.2
0	104889	781.2	56
0	104890	781.2	55.8
0	104891	781.2	55.6
0	104892	781.2	55.4
0	104893	781.2	55.2
0	104894	781.2	55
0	104895	781.2	54.8
0	104896	781.2	54.6
0	104897	781.2	54.4
0	104898	781.2	54.2
0	104899	781.2	54
0	104900	781.2	53.8
0	104901	781.2	53.6
0	104902	781.2	53.4
0	104903	781.2	53.2
0	104904	781.2	53
0	104905	781.2	52.8
0	104906	781.2	52.6
0	104907	781.2	52.4
0	104908	781.2	52.2
0	104909	781.2	52
0	104910	781.2	51.8
0	104911	781.2	51.6
0	104912	781.2	51.4
0	104913	781.2	51.2
0	104914	781.2	51
0	104915	781.2	50.8
0	104916	781.2	50.6
0	104917	781.2	50.4
0	104918	781.2	50.2
0	104919	781.2	50
0	104920	781.2	49.8
0	104921	781.2	49.6
0	104922	781.2	49.4
0	104923	781.2	49.2
0	104924	781.2	49
0	104925	781.2	48.8
0	104926	781.2	48.6
0	104927	781.2	48.4
0	104928	781.2	48.2
0	104929	781.2	48
0	104930	781.2	47.8
0	104931	781.2	47.6
0	104932	781.2	47.4
0	104933	781.2	47.2
0	104934	781.2	47
0	104935	781.2	46.8
0	104936	781.2	46.6
0	104937	781.2	46.4
0	104938	781.2	46.2
0	104939	781.2	46
0	104940	781.2	45.8
0	104941	781.2	45.6
0	104942	781.2	45.4
0	104943	781.2	45.2
0	104944	781.2	45
0	104945	781.2	44.8
0	104946	781.2	44.6
0	104947	781.2	44.4
0	104948	781.2	44.2
0	104949	781.2	44
0	104950	781.2	43.8
0	104951	781.2	43.6
0	104952	781.2	43.4
0	104953	781.2	43.2
0	104954	781.2	43
0	104955	781.2	42.8
0	104956	781.2	42.6
0	104957	781.2	42.4
0	104958	781.2	42.2
0	104959	781.2	42
0	104960	781.2	41.8
0	104961	781.2	41.6
0	104962	781.2	41.4
0	104963	781.2	41.2
0	104964	781.2	41
0	104965	781.2	40.8
0	104966	781.2	40.6
0	104967	781.2	40.4
0	104968	781.2	40.2
0	104969	781.2	40
0	104970	781.2	39.8
0	104971	781.2	39.6
0	104972	781.2	39.4
0	104973	781.2	39.2
0	104974	781.2	39
0	104975	781.2	38.8
0	104976	781.2	38.6
0	104977	781.2	38.4
0	104978	781.2	38.2
0	104979	781.2	38
0	104980	781.2	37.8
0	104981	781.2	37.6
0	104982	781.2	37.4
0	104983	781.2	37.2
0	104984	781.2	37
0	104985	781.2	36.8
0	104986	781.2	36.6
0	104987	781.2	36.4
0	104988	781.2	190.2
0	104989	781.2	190
0	104990	781.2	189.8
0	104991	781.2	189.6
0	104992	781.2	189.4
0	104993	781.2	189.2
0	104994	781.2	189
0	104995	781.2	188.8
0	104996	781.2	188.6
0	104997	781.2	188.4
0	104998	781.2	188.2
0	104999	781.2	188
0	105000	781.2	187.8
0	105001	781.2	187.6
0	105002	781.2	187.4
0	105003	781.2	187.2
0	105004	781.2	187
0	105005	781.2	186.8
0	105006	781.2	186.6
0	105007	781.2	186.4
0	105008	781.2	186.2
0	105009	781.2	186
0	105010	781.2	185.8
0	105011	781.2	185.6
0	105012	781.2	185.4
0	105013	781.2	185.2
0	105014	781.2	185
0	105015	781.2	184.8
0	105016	781.2	184.6
0	105017	781.2	184.4
0	105018	781.2	184.2
0	105019	781.2	184
0	105020	781.2	183.8
0	105021	781.2	183.6
0	105022	781.2	183.4
0	105023	781.2	183.2
0	105024	781.2	183
0	105025	781.2	182.8
0	105026	781.2	182.6
0	105027	781.2	182.4
0	105028	781.2	182.2
0	105029	781.2	182
0	105030	781.2	181.8
0	105031	781.2	181.6
0	105032	781.2	181.4
0	105033	781.2	181.2
0	105034	781.2	181
0	105035	781.2	180.8
0	105036	781.2	180.6
0	105037	781.2	180.4
0	105038	781.2	180.2
0	105039	781.2	180
0	105040	781.2	179.8
0	105041	781.2	179.6
0	105042	781.2	179.4
0	105043	781.2	179.2
0	105044	781.2	179
0	105045	781.2	178.8
0	105046	781.2	178.6
0	105047	781.2	178.4
0	105048	781.2	178.2
0	105049	781.2	178
0	105050	781.2	177.8
0	105051	781.2	177.6
0	105052	781.2	177.4
0	105053	781.2	177.2
0	105054	781.2	177
0	105055	781.2	176.8
0	105056	781.2	176.6
0	105057	781.2	176.4
0	105058	781.2	176.2
0	105059	781.2	176
0	105060	781.2	175.8
0	105061	781.2	175.6
0	105062	781.2	175.4
0	105063	781.2	175.2
0	105064	781.2	175
0	105065	781.2	174.8
0	105066	781.2	174.6
0	105067	781.2	174.4
0	105068	781.2	174.2
0	105069	781.2	174
0	105070	781.2	173.8
0	105071	781.2	173.6
0	105072	781.2	173.4
0	105073	781.2	173.2
0	105074	781.2	173
0	105075	781.2	172.8
0	105076	781.2	172.6
0	105077	781.2	172.4
0	105078	781.2	172.2
0	105079	781.2	172
0	105080	781.2	171.8
0	105081	781.2	171.6
0	105082	781.2	171.4
0	105083	781.2	171.2
0	105084	781.2	171
0	105085	781.2	170.8
0	105086	781.2	170.6
0	105087	781.2	170.4
0	105088	781.2	170.2
0	105089	781.2	170
0	105090	781.2	169.8
0	105091	781.2	169.6
0	105092	781.2	169.4
0	105093	781.2	169.2
0	105094	781.2	169
0	105095	781.2	168.8
0	105096	781.2	168.6
0	105097	781.2	168.4
0	105098	781.2	168.2
0	105099	781.2	168
0	105100	781.2	167.8
0	105101	781.2	167.6
0	105102	781.2	167.4
0	105103	781.2	167.2
0	105104	781.2	167
0	105105	781.2	166.8
0	105106	781.2	166.6
0	105107	781.2	166.4
0	105108	781.2	166.2
0	105109	781.2	166
0	105110	781.2	165.8
0	105111	781.2	165.6
0	105112	781.2	165.4
0	105113	781.2	165.2
0	105114	781.2	165
0	105115	781.2	164.8
0	105116	781.2	164.6
0	105117	781.2	164.4
0	105118	781.2	164.2
0	105119	781.2	164
0	105120	781.2	163.8
0	105121	781.2	163.6
0	105122	781.2	163.4
0	105123	781.2	163.2
0	105124	781.2	163
0	105125	781.2	162.8
0	105126	781.2	162.6
0	105127	781.2	162.4
0	105128	781.2	162.2
0	105129	781.2	162
0	105130	781.2	161.8
0	105131	781.2	161.6
0	105132	781.2	161.4
0	105133	781.2	161.2
0	105134	781.2	161
0	105135	781.2	160.8
0	105136	781.2	160.6
0	105137	781.2	160.4
0	105138	781.2	160.2
0	105139	781.2	160
0	105140	781.2	159.8
0	105141	781.2	159.6
0	105142	781.2	159.4
0	105143	781.2	159.2
0	105144	781.2	159
0	105145	781.2	158.8
0	105146	781.2	158.6
0	105147	781.2	158.4
0	105148	781.2	158.2
0	105149	781.2	158
0	105150	781.2	157.8
0	105151	781.2	157.6
0	105152	781.2	157.4
0	105153	781.2	157.2
0	105154	781.2	157
0	105155	781.2	156.8
0	105156	781.2	156.6
0	105157	781.2	156.4
0	105158	781.2	156.2
0	105159	781.2	156
0	105160	781.2	155.8
0	105161	781.2	155.6
0	105162	781.2	155.4
0	105163	781.2	155.2
0	105164	781.2	155
0	105165	781.2	154.8
0	105166	781.2	154.6
0	105167	781.2	154.4
0	105168	781.2	154.2
0	105169	781.2	154
0	105170	781.2	153.8
0	105171	781.2	153.6
0	105172	781.2	153.4
0	105173	781.2	153.2
0	105174	781.2	153
0	105175	781.2	152.8
0	105176	781.2	152.6
0	105177	781.2	152.4
0	105178	781.2	152.2
0	105179	781.2	152
0	105180	781.2	151.8
0	105181	781.2	151.6
0	105182	781.2	151.4
0	105183	781.2	151.2
0	105184	781.2	151
0	105185	781.2	150.8
0	105186	781.2	150.6
0	105187	781.2	150.4
0	105188	781.2	150.2
0	105189	781.2	150
0	105190	781.2	149.8
0	105191	781.2	149.6
0	105192	781.2	149.4
0	105193	781.2	149.2
0	105194	781.2	149
0	105195	781.2	148.8
0	105196	781.2	148.6
0	105197	781.2	148.4
0	105198	781.2	148.2
0	105199	781.2	148
0	105200	781.2	147.8
0	105201	781.2	147.6
0	105202	781.2	147.4
0	105203	781.2	147.2
0	105204	781.2	147
0	105205	781.2	146.8
0	105206	781.2	146.6
0	105207	781.2	146.4
0	105208	781.2	146.2
0	105209	781.2	146
0	105210	781.2	145.8
0	105211	781.2	145.6
0	105212	781.2	145.4
0	105213	781.2	145.2
0	105214	781.2	145
0	105215	781.2	144.8
0	105216	781.2	144.6
0	105217	781.2	144.4
0	105218	781.2	144.2
0	105219	781.2	144
0	105220	781.2	143.8
0	105221	781.2	143.6
0	105222	781.2	143.4
0	105223	781.2	143.2
0	105224	781.2	143
0	105225	781.2	142.8
0	105226	781.2	142.6
0	105227	781.2	142.4
0	105228	781.2	142.2
0	105229	781.2	142
0	105230	781.2	141.8
0	105231	781.2	141.6
0	105232	781.2	141.4
0	105233	781.2	141.2
0	105234	781.2	141
0	105235	781.2	140.8
0	105236	781.2	140.6
0	105237	781.2	140.4
0	105238	781.2	140.2
0	105239	781.2	140
0	105240	781.2	139.8
0	105241	781.2	139.6
0	105242	781.2	139.4
0	105243	781.2	139.2
0	105244	781.2	139
0	105245	781.2	138.8
0	105246	781.2	138.6
0	105247	781.2	138.4
0	105248	781.2	138.2
0	105249	781.2	138
0	105250	781.2	137.8
0	105251	781.2	137.6
0	105252	781.2	137.4
0	105253	781.2	137.2
0	105254	781.2	137
0	105255	781.2	136.8
0	105256	781.2	136.6
0	105257	781.2	136.4
0	105258	781.2	136.2
0	105259	781.2	36.2
0	105260	781.2	136
0	105261	781.2	36
0	105262	781.2	135.8
0	105263	781.2	35.8
0	105264	781.2	135.6
0	105265	781.2	35.6
0	105266	781.2	135.4
0	105267	781.2	35.4
0	105268	781.2	135.2
0	105269	781.2	35.2
0	105270	781.2	135
0	105271	781.2	35
0	105272	781.2	134.8
0	105273	781.2	34.8
0	105274	781.2	134.6
0	105275	781.2	34.6
0	105276	781.2	134.4
0	105277	781.2	34.4
0	105278	781.2	134.2
0	105279	781.2	34.2
0	105280	781.2	134
0	105281	781.2	34
0	105282	781.2	133.8
0	105283	781.2	33.8
0	105284	781.2	133.6
0	105285	781.2	33.6
0	105286	781.2	133.4
0	105287	781.2	33.4
0	105288	781.2	133.2
0	105289	781.2	33.2
0	105290	781.2	133
0	105291	781.2	33
0	105292	781.2	132.8
0	105293	781.2	32.8
0	105294	781.2	132.6
0	105295	781.2	32.6
0	105296	781.2	132.4
0	105297	781.2	32.4
0	105298	781.2	32.2
0	105299	781.2	32
0	105300	781.2	31.8
0	105301	781.2	31.6
0	105302	781.2	31.4
0	105303	781.2	31.2
0	105304	781.2	31
0	105305	781.2	30.8
0	105306	781.2	30.6
0	105307	781.2	30.4
0	105308	781.2	30.2
0	105309	781.2	30
0	105310	781.2	29.8
0	105311	781.2	29.6
0	105312	781.2	29.4
0	105313	781.2	29.2
0	105314	781.2	29
0	105315	781.2	28.8
0	105316	781.2	28.6
0	105317	781.2	28.4
0	105318	781.2	28.2
0	105319	781.2	28
0	105320	781.2	27.8
0	105321	781.2	27.6
0	105322	781.2	27.4
0	105323	781.2	27.2
0	105324	781.2	27
0	105325	781.2	26.8
0	105326	781.2	26.6
0	105327	781.2	26.4
0	105328	781.2	26.2
0	105329	781.2	26
0	105330	781.2	25.8
0	105331	781.2	25.6
0	105332	781.2	25.4
0	105333	781.2	25.2
0	105334	781.2	25
0	105335	781.2	24.8
0	105336	781.2	24.6
0	105337	781.2	24.4
0	105338	781.2	24.2
0	105339	781.2	24
0	105340	781.2	23.8
0	105341	781.2	23.6
0	105342	781.2	23.4
0	105343	781.2	23.2
0	105344	781.2	23
0	105345	781.2	22.8
0	105346	781.2	22.6
0	105347	781.2	22.4
0	105348	781.2	22.2
0	105349	781.2	22
0	105350	781.2	21.8
0	105351	781.2	21.6
0	105352	781.2	21.4
0	105353	781.2	132.2
0	105354	781.2	132
0	105355	781.2	131.8
0	105356	781.2	131.6
0	105357	781.2	131.4
0	105358	781.2	131.2
0	105359	781.2	131
0	105360	781.2	130.8
0	105361	781.2	130.6
0	105362	781.2	130.4
0	105363	781.2	130.2
0	105364	781.2	130
0	105365	781.2	129.8
0	105366	781.2	129.6
0	105367	781.2	129.4
0	105368	781.2	129.2
0	105369	781.2	129
0	105370	781.2	128.8
0	105371	781.2	128.6
0	105372	781.2	128.4
0	105373	781.2	128.2
0	105374	781.2	128
0	105375	781.2	127.8
0	105376	781.2	127.6
0	105377	781.2	127.4
0	105378	781.2	127.2
0	105379	781.2	127
0	105380	781.2	126.8
0	105381	781.2	126.6
0	105382	781.2	126.4
0	105383	781.2	126.2
0	105384	781.2	126
0	105385	781.2	125.8
0	105386	781.2	125.6
0	105387	781.2	125.4
0	105388	781.2	125.2
0	105389	781.2	125
0	105390	781.2	124.8
0	105391	781.2	124.6
0	105392	781.2	124.4
0	105393	781.2	124.2
0	105394	781.2	124
0	105395	781.2	123.8
0	105396	781.2	123.6
0	105397	781.2	123.4
0	105398	781.2	123.2
0	105399	781.2	123
0	105400	781.2	122.8
0	105401	781.2	122.6
0	105402	781.2	122.4
0	105403	781.2	122.2
0	105404	781.2	122
0	105405	781.2	121.8
0	105406	781.2	121.6
0	105407	781.2	121.4
0	105408	781.2	121.2
0	105409	781.2	21.2
0	105410	781.2	121
0	105411	781.2	21
0	105412	781.2	120.8
0	105413	781.2	20.8
0	105414	781.2	120.6
0	105415	781.2	20.6
0	105416	781.2	120.4
0	105417	781.2	20.4
0	105418	781.2	120.2
0	105419	781.2	20.2
0	105420	781.2	120
0	105421	781.2	20
0	105422	781.2	119.8
0	105423	781.2	19.8
0	105424	781.2	119.6
0	105425	781.2	19.6
0	105426	781.2	119.4
0	105427	781.2	19.4
0	105428	781.2	119.2
0	105429	781.2	19.2
0	105430	781.2	119
0	105431	781.2	19
0	105432	781.2	118.8
0	105433	781.2	18.8
0	105434	781.2	118.6
0	105435	781.2	18.6
0	105436	781.2	118.4
0	105437	781.2	18.4
0	105438	781.2	118.2
0	105439	781.2	18.2
0	105440	781.2	118
0	105441	781.2	18
0	105442	781.2	117.8
0	105443	781.2	17.8
0	105444	781.2	117.6
0	105445	781.2	17.6
0	105446	781.2	117.4
0	105447	781.2	17.4
0	105448	781.2	17.2
0	105449	781.2	17
0	105450	781.2	16.8
0	105451	781.2	16.6
0	105452	781.2	16.4
0	105453	781.2	16.2
0	105454	781.2	16
0	105455	781.2	15.8
0	105456	781.2	15.6
0	105457	781.2	15.4
0	105458	781.2	15.2
0	105459	781.2	15
0	105460	781.2	14.8
0	105461	781.2	14.6
0	105462	781.2	14.4
0	105463	781.2	14.2
0	105464	781.2	14
0	105465	781.2	13.8
0	105466	781.2	13.6
0	105467	781.2	13.4
0	105468	781.2	13.2
0	105469	781.2	13
0	105470	781.2	12.8
0	105471	781.2	12.6
0	105472	781.2	12.4
0	105473	781.2	12.2
0	105474	781.2	12
0	105475	781.2	11.8
0	105476	781.2	11.6
0	105477	781.2	11.4
0	105478	781.2	11.2
0	105479	781.2	11
0	105480	781.2	10.8
0	105481	781.2	10.6
0	105482	781.2	10.4
0	105483	781.2	10.2
0	105484	781.2	10
0	105485	781.2	9.8
0	105486	781.2	9.6
0	105487	781.2	9.4
0	111105	789.1	269.1
0	111106	789.1	268.9
0	111107	789.1	268.7
0	111108	789.1	268.5
0	111109	789.1	268.3
0	111110	789.1	268.1
0	111111	789.1	267.9
0	111112	789.1	267.7
0	111113	789.1	267.5
0	111114	789.1	267.3
0	111115	789.1	267.1
0	111116	789.1	266.9
0	111117	789.1	266.7
0	111118	789.1	266.5
0	111119	789.1	266.3
0	111120	789.1	266.1
0	111121	789.1	265.9
0	111122	789.1	265.7
0	111123	789.1	265.5
0	111124	789.1	265.3
0	111125	789.1	371.1
0	111126	789.1	370.9
0	111127	789.1	370.7
0	111128	789.1	370.5
0	111129	789.1	370.3
0	111130	789.1	470.1
0	111131	789.1	370.1
0	111132	789.1	469.9
0	111133	789.1	369.9
0	111134	789.1	469.7
0	111135	789.1	369.7
0	111136	789.1	469.5
0	111137	789.1	369.5
0	111138	789.1	469.3
0	111139	789.1	369.3
0	111140	789.1	469.1
0	111141	789.1	369.1
0	111142	789.1	468.9
0	111143	789.1	368.9
0	111144	789.1	468.7
0	111145	789.1	368.7
0	111146	789.1	468.5
0	111147	789.1	368.5
0	111148	789.1	468.3
0	111149	789.1	368.3
0	111150	789.1	468.1
0	111151	789.1	368.1
0	111152	789.1	467.9
0	111153	789.1	367.9
0	111154	789.1	467.7
0	111155	789.1	367.7
0	111156	789.1	467.5
0	111157	789.1	367.5
0	111158	789.1	467.3
0	111159	789.1	367.3
0	111160	789.1	467.1
0	111161	789.1	367.1
0	111162	789.1	466.9
0	111163	789.1	366.9
0	111164	789.1	466.7
0	111165	789.1	366.7
0	111166	789.1	466.5
0	111167	789.1	366.5
0	111168	789.1	466.3
0	111169	789.1	366.3
0	111170	789.1	466.1
0	111171	789.1	366.1
0	111172	789.1	465.9
0	111173	789.1	365.9
0	111174	789.1	465.7
0	111175	789.1	365.7
0	111176	789.1	465.5
0	111177	789.1	365.5
0	111178	789.1	465.3
0	111179	789.1	365.3
0	111180	789.1	365.1
0	111181	789.1	265.1
0	111182	789.1	364.9
0	111183	789.1	264.9
0	111184	789.1	364.7
0	111185	789.1	264.7
0	111186	789.1	364.5
0	111187	789.1	264.5
0	111188	789.1	364.3
0	111189	789.1	264.3
0	111190	789.1	364.1
0	111191	789.1	264.1
0	111192	789.1	363.9
0	111193	789.1	263.9
0	111194	789.1	363.7
0	111195	789.1	263.7
0	111196	789.1	363.5
0	111197	789.1	263.5
0	111198	789.1	363.3
0	111199	789.1	263.3
0	111200	789.1	263.1
0	111201	789.1	262.9
0	111202	789.1	262.7
0	111203	789.1	262.5
0	111204	789.1	262.3
0	111205	789.1	262.1
0	111206	789.1	261.9
0	111207	789.1	261.7
0	111208	789.1	261.5
0	111209	789.1	261.3
0	111210	789.1	261.1
0	111211	789.1	260.9
0	111212	789.1	360.7
0	111213	789.1	260.7
0	111214	789.1	360.5
0	111215	789.1	260.5
0	111216	789.1	360.3
0	111217	789.1	260.3
0	111218	789.1	260.1
0	111219	789.1	259.9
0	111220	789.1	259.7
0	111221	789.1	259.5
0	111222	789.1	259.3
0	111223	789.1	259.1
0	111224	789.1	258.9
0	111225	789.1	258.7
0	111226	789.1	258.5
0	111227	789.1	258.3
0	111228	789.1	258.1
0	111229	789.1	257.9
0	111230	789.1	257.7
0	111231	789.1	257.5
0	111232	789.1	257.3
0	111233	789.1	257.1
0	111234	789.1	256.9
0	111235	789.1	256.7
0	111236	789.1	256.5
0	111237	789.1	256.3
0	111238	789.1	256.1
0	111239	789.1	255.9
0	111240	789.1	255.7
0	111241	789.1	255.5
0	111242	789.1	255.3
0	111243	789.1	255.1
0	111244	789.1	254.9
0	111245	789.1	254.7
0	111246	789.1	254.5
0	111247	789.1	254.3
0	111248	789.1	254.1
0	111249	789.1	253.9
0	111250	789.1	253.7
0	111251	789.1	253.5
0	111252	789.1	253.3
0	111253	789.1	253.1
0	111254	789.1	252.9
0	111255	789.1	252.7
0	111256	789.1	252.5
0	111257	789.1	252.3
0	111258	789.1	252.1
0	111259	789.1	251.9
0	111260	789.1	251.7
0	111261	789.1	251.5
0	111262	789.1	251.3
0	111263	789.1	251.1
0	111264	789.1	250.9
0	111265	789.1	250.7
0	111266	789.1	250.5
0	111267	789.1	250.3
0	111268	789.1	250.1
0	111269	789.1	249.9
0	111270	789.1	249.7
0	111271	789.1	249.5
0	111272	789.1	249.3
0	111273	789.1	249.1
0	111274	789.1	248.9
0	111275	789.1	248.7
0	111276	789.1	248.5
0	111277	789.1	248.3
0	111278	789.1	248.1
0	111279	789.1	247.9
0	111280	789.1	247.7
0	111281	789.1	247.5
0	111282	789.1	247.3
0	111283	789.1	247.1
0	111284	789.1	246.9
0	111285	789.1	246.7
0	111286	789.1	246.5
0	111287	789.1	246.3
0	111288	789.1	246.1
0	111289	789.1	245.9
0	111290	789.1	245.7
0	111291	789.1	245.5
0	111292	789.1	245.3
0	111293	789.1	245.1
0	111294	789.1	244.9
0	111295	789.1	244.7
0	111296	789.1	244.5
0	111297	789.1	244.3
0	111298	789.1	244.1
0	111299	789.1	243.9
0	111300	789.1	243.7
0	111301	789.1	243.5
0	111302	789.1	243.3
0	111303	789.1	243.1
0	111304	789.1	242.9
0	111305	789.1	242.7
0	111306	789.1	242.5
0	111307	789.1	242.3
0	111308	789.1	242.1
0	111309	789.1	241.9
0	111310	789.1	241.7
0	111311	789.1	241.5
0	111312	789.1	241.3
0	111313	789.1	241.1
0	111314	789.1	240.9
0	111315	789.1	240.7
0	111316	789.1	240.5
0	111317	789.1	240.3
0	111318	789.1	240.1
0	111319	789.1	239.9
0	111320	789.1	239.7
0	111321	789.1	239.5
0	111322	789.1	239.3
0	111323	789.1	239.1
0	111324	789.1	238.9
0	111325	789.1	238.7
0	111326	789.1	238.5
0	111327	789.1	238.3
0	111328	789.1	238.1
0	111329	789.1	237.9
0	111330	789.1	237.7
0	111331	789.1	237.5
0	111332	789.1	237.3
0	111333	789.1	237.1
0	111334	789.1	236.9
0	111335	789.1	236.7
0	111336	789.1	236.5
0	111337	789.1	236.3
0	111338	789.1	236.1
0	111339	789.1	235.9
0	111340	789.1	235.7
0	111341	789.1	235.5
0	111342	789.1	235.3
0	111343	789.1	235.1
0	111344	789.1	234.9
0	111345	789.1	234.7
0	111346	789.1	234.5
0	111347	789.1	234.3
0	111348	789.1	234.1
0	111349	789.1	233.9
0	111350	789.1	233.7
0	111351	789.1	233.5
0	111352	789.1	233.3
0	111353	789.1	233.1
0	111354	789.1	232.9
0	111355	789.1	232.7
0	111356	789.1	232.5
0	111357	789.1	232.3
0	111358	789.1	232.1
0	111359	789.1	231.9
0	111360	789.1	231.7
0	111361	789.1	231.5
0	111362	789.1	231.3
0	111363	789.1	231.1
0	111364	789.1	230.9
0	111365	789.1	230.7
0	111366	789.1	230.5
0	111367	789.1	230.3
0	111368	789.1	334.1
0	111369	789.1	333.9
0	111370	789.1	333.7
0	111371	789.1	333.5
0	111372	789.1	333.3
0	111373	789.1	333.1
0	111374	789.1	332.9
0	111375	789.1	332.7
0	111376	789.1	332.5
0	111377	789.1	332.3
0	111378	789.1	332.1
0	111379	789.1	331.9
0	111380	789.1	331.7
0	111381	789.1	331.5
0	111382	789.1	331.3
0	111383	789.1	331.1
0	111384	789.1	330.9
0	111385	789.1	330.7
0	111386	789.1	330.5
0	111387	789.1	330.3
0	111388	789.1	330.1
0	111389	789.1	230.1
0	111390	789.1	329.9
0	111391	789.1	229.9
0	111392	789.1	329.7
0	111393	789.1	229.7
0	111394	789.1	329.5
0	111395	789.1	229.5
0	111396	789.1	329.3
0	111397	789.1	229.3
0	111398	789.1	329.1
0	111399	789.1	229.1
0	111400	789.1	328.9
0	111401	789.1	228.9
0	111402	789.1	328.7
0	111403	789.1	228.7
0	111404	789.1	328.5
0	111405	789.1	228.5
0	111406	789.1	328.3
0	111407	789.1	228.3
0	111408	789.1	328.1
0	111409	789.1	228.1
0	111410	789.1	327.9
0	111411	789.1	227.9
0	111412	789.1	327.7
0	111413	789.1	227.7
0	111414	789.1	327.5
0	111415	789.1	227.5
0	111416	789.1	327.3
0	111417	789.1	227.3
0	111418	789.1	327.1
0	111419	789.1	227.1
0	111420	789.1	326.9
0	111421	789.1	226.9
0	111422	789.1	326.7
0	111423	789.1	226.7
0	111424	789.1	326.5
0	111425	789.1	226.5
0	111426	789.1	326.3
0	111427	789.1	226.3
0	111428	789.1	326.1
0	111429	789.1	226.1
0	111430	789.1	325.9
0	111431	789.1	225.9
0	111432	789.1	325.7
0	111433	789.1	225.7
0	111434	789.1	325.5
0	111435	789.1	225.5
0	111436	789.1	325.3
0	111437	789.1	225.3
0	111438	789.1	225.1
0	111439	789.1	224.9
0	111440	789.1	224.7
0	111441	789.1	224.5
0	111442	789.1	224.3
0	111443	789.1	224.1
0	111444	789.1	223.9
0	111445	789.1	223.7
0	111446	789.1	223.5
0	111447	789.1	223.3
0	111448	789.1	223.1
0	111449	789.1	222.9
0	111450	789.1	222.7
0	111451	789.1	222.5
0	111452	789.1	222.3
0	111453	789.1	222.1
0	111454	789.1	221.9
0	111455	789.1	221.7
0	111456	789.1	221.5
0	111457	789.1	221.3
0	111458	789.1	221.1
0	111459	789.1	220.9
0	111460	789.1	220.7
0	111461	789.1	220.5
0	111462	789.1	220.3
0	111463	789.1	220.1
0	111464	789.1	219.9
0	111465	789.1	219.7
0	111466	789.1	219.5
0	111467	789.1	219.3
0	111468	789.1	219.1
0	111469	789.1	218.9
0	111470	789.1	218.7
0	111471	789.1	218.5
0	111472	789.1	218.3
0	111473	789.1	218.1
0	111474	789.1	217.9
0	111475	789.1	217.7
0	111476	789.1	217.5
0	111477	789.1	217.3
0	111478	789.1	217.1
0	111479	789.1	216.9
0	111480	789.1	216.7
0	111481	789.1	216.5
0	111482	789.1	216.3
0	111483	789.1	216.1
0	111484	789.1	215.9
0	111485	789.1	215.7
0	111486	789.1	215.5
0	111487	789.1	215.3
0	111488	789.1	215.1
0	111489	789.1	214.9
0	111490	789.1	214.7
0	111491	789.1	214.5
0	111492	789.1	214.3
0	111493	789.1	214.1
0	111494	789.1	213.9
0	111495	789.1	213.7
0	111496	789.1	213.5
0	111497	789.1	213.3
0	111498	789.1	213.1
0	111499	789.1	212.9
0	111500	789.1	212.7
0	111501	789.1	212.5
0	111502	789.1	212.3
0	111503	789.1	212.1
0	111504	789.1	211.9
0	111505	789.1	211.7
0	111506	789.1	211.5
0	111507	789.1	211.3
0	111508	789.1	211.1
0	111509	789.1	210.9
0	111510	789.1	210.7
0	111511	789.1	210.5
0	111512	789.1	210.3
0	111513	789.1	210.1
0	111514	789.1	209.9
0	111515	789.1	209.7
0	111516	789.1	209.5
0	111517	789.1	209.3
0	111518	789.1	209.1
0	111519	789.1	208.9
0	111520	789.1	208.7
0	111521	789.1	208.5
0	111522	789.1	208.3
0	111523	789.1	208.1
0	111524	789.1	207.9
0	111525	789.1	207.7
0	111526	789.1	207.5
0	111527	789.1	207.3
0	111528	789.1	207.1
0	111529	789.1	206.9
0	111530	789.1	206.7
0	111531	789.1	206.5
0	111532	789.1	206.3
0	111533	789.1	206.1
0	111534	789.1	205.9
0	111535	789.1	205.7
0	111536	789.1	205.5
0	114126	805.1	27.1
0	114127	805.1	26.9
0	114128	805.1	26.7
0	114129	805.1	26.5
0	114130	805.1	26.3
0	114131	805.1	26.1
0	114132	805.1	25.9
0	114133	805.1	25.7
0	114134	805.1	25.5
0	114135	805.1	25.3
0	114136	805.1	25.1
0	114137	805.1	24.9
0	114138	805.1	24.7
0	114139	805.1	24.5
0	114140	805.1	24.3
0	114141	805.1	24.1
0	114142	805.1	23.9
0	114143	805.1	23.7
0	114144	805.1	23.5
0	114145	805.1	23.3
0	114146	805.1	23.1
0	114147	805.1	22.9
0	114148	805.1	22.7
0	114149	805.1	22.5
0	114150	805.1	22.3
0	114151	805.1	22.1
0	114152	805.1	21.9
0	114153	805.1	21.7
0	114154	805.1	21.5
0	114155	805.1	21.3
0	114156	805.1	21.1
0	114157	805.1	20.9
0	114158	805.1	20.7
0	114159	805.1	20.5
0	114160	805.1	20.3
0	114161	805.1	20.1
0	114162	805.1	19.9
0	114163	805.1	19.7
0	114164	805.1	19.5
0	114165	805.1	19.3
0	114166	805.1	19.1
0	114167	805.1	18.9
0	114168	805.1	18.7
0	114169	805.1	18.5
0	114170	805.1	18.3
0	114171	805.1	18.1
0	114172	805.1	17.9
0	114173	805.1	17.7
0	114174	805.1	17.5
0	114175	805.1	17.3
0	114176	805.1	17.1
0	114177	805.1	16.9
0	114178	805.1	16.7
0	114179	805.1	16.5
0	114180	805.1	16.3
0	114181	805.1	16.1
0	114182	805.1	15.9
0	114183	805.1	15.7
0	114184	805.1	15.5
0	114185	805.1	15.3
0	114186	805.1	15.1
0	114187	805.1	14.9
0	114188	805.1	14.7
0	114189	805.1	14.5
0	114190	805.1	14.3
0	114191	805.1	14.1
0	114192	805.1	13.9
0	114193	805.1	13.7
0	114194	805.1	13.5
0	114195	805.1	13.3
0	114196	805.1	13.1
0	114197	805.1	12.9
0	114198	805.1	12.7
0	114199	805.1	12.5
0	114200	805.1	12.3
0	114201	805.1	12.1
0	114202	805.1	11.9
0	114203	805.1	11.7
0	114204	805.1	11.5
0	114205	805.1	11.3
0	114206	805.1	11.1
0	114207	805.1	10.9
0	114208	805.1	10.7
0	114209	805.1	10.5
0	114210	805.1	10.3
0	114211	805.1	10.1
0	114212	805.1	9.9
0	114213	805.1	9.7
0	114214	805.1	9.5
0	114215	805.1	9.3
0	114216	805.1	9.1
0	114217	805.1	8.9
0	114218	805.1	8.7
0	114219	805.1	8.5
0	114220	805.1	8.3
0	114221	805.1	8.1
0	114222	805.1	7.9
0	114223	805.1	7.7
0	114224	805.1	7.5
0	114225	805.1	7.3
0	125835	823.1	154.1
0	125836	823.1	153.9
0	125837	823.1	153.7
0	125838	823.1	153.5
0	125839	823.1	153.3
0	125840	823.1	153.1
0	125841	823.1	152.9
0	125842	823.1	152.7
0	125843	823.1	152.5
0	125844	823.1	152.3
0	125845	823.1	152.1
0	125846	823.1	151.9
0	125847	823.1	151.7
0	125848	823.1	151.5
0	125849	823.1	151.3
0	125850	823.1	151.1
0	125851	823.1	150.9
0	125852	823.1	150.7
0	125853	823.1	150.5
0	125854	823.1	150.3
0	125855	823.1	150.1
0	125856	823.1	149.9
0	125857	823.1	149.7
0	125858	823.1	149.5
0	125859	823.1	149.3
0	125860	823.1	149.1
0	125861	823.1	148.9
0	125862	823.1	148.7
0	125863	823.1	148.5
0	125864	823.1	148.3
0	125865	823.1	148.1
0	125866	823.1	147.9
0	125867	823.1	147.7
0	125868	823.1	147.5
0	125869	823.1	147.3
0	125870	823.1	147.1
0	125871	823.1	146.9
0	125872	823.1	146.7
0	125873	823.1	146.5
0	125874	823.1	146.3
0	125875	823.1	146.1
0	125876	823.1	145.9
0	125877	823.1	145.7
0	125878	823.1	145.5
0	125879	823.1	145.3
0	125880	823.1	145.1
0	125881	823.1	144.9
0	125882	823.1	144.7
0	125883	823.1	144.5
0	125884	823.1	144.3
0	125885	823.1	144.1
0	125886	823.1	143.9
0	125887	823.1	143.7
0	125888	823.1	143.5
0	125889	823.1	143.3
0	125890	823.1	143.1
0	125891	823.1	142.9
0	125892	823.1	142.7
0	125893	823.1	142.5
0	125894	823.1	142.3
0	125895	823.1	142.1
0	125896	823.1	141.9
0	125897	823.1	141.7
0	125898	823.1	141.5
0	125899	823.1	141.3
0	125900	823.1	141.1
0	125901	823.1	140.9
0	125902	823.1	140.7
0	125903	823.1	140.5
0	125904	823.1	140.3
0	125905	823.1	140.1
0	125906	823.1	139.9
0	125907	823.1	139.7
0	125908	823.1	139.5
0	125909	823.1	139.3
0	125910	823.1	139.1
0	125911	823.1	138.9
0	125912	823.1	138.7
0	125913	823.1	138.5
0	125914	823.1	138.3
0	125915	823.1	138.1
0	125916	823.1	137.9
0	125917	823.1	137.7
0	125918	823.1	137.5
0	125919	823.1	137.3
0	125920	823.1	137.1
0	125921	823.1	136.9
0	125922	823.1	136.7
0	125923	823.1	136.5
0	125924	823.1	136.3
0	125925	823.1	136.1
0	125926	823.1	135.9
0	125927	823.1	135.7
0	125928	823.1	135.5
0	125929	823.1	135.3
0	125930	823.1	135.1
0	125931	823.1	134.9
0	125932	823.1	134.7
0	125933	823.1	134.5
0	125934	823.1	134.3
0	125935	823.1	134.1
0	125936	823.1	133.9
0	125937	823.1	133.7
0	125938	823.1	133.5
0	125939	823.1	133.3
0	125940	823.1	133.1
0	125941	823.1	132.9
0	125942	823.1	132.7
0	125943	823.1	132.5
0	125944	823.1	132.3
0	125945	823.1	132.1
0	125946	823.1	131.9
0	125947	823.1	131.7
0	125948	823.1	131.5
0	125949	823.1	131.3
0	125950	823.1	131.1
0	125951	823.1	130.9
0	125952	823.1	130.7
0	125953	823.1	130.5
0	125954	823.1	130.3
0	125955	823.1	130.1
0	125956	823.1	129.9
0	125957	823.1	129.7
0	125958	823.1	129.5
0	125959	823.1	129.3
0	125960	823.1	129.1
0	125961	823.1	128.9
0	125962	823.1	128.7
0	125963	823.1	128.5
0	125964	823.1	128.3
0	125965	823.1	128.1
0	125966	823.1	127.9
0	125967	823.1	127.7
0	125968	823.1	127.5
0	125969	823.1	127.3
0	125970	823.1	127.1
0	125971	823.1	126.9
0	125972	823.1	126.7
0	125973	823.1	126.5
0	125974	823.1	126.3
0	125975	823.1	126.1
0	125976	823.1	125.9
0	125977	823.1	125.7
0	125978	823.1	125.5
0	125979	823.1	125.3
0	125980	823.1	125.1
0	125981	823.1	124.9
0	125982	823.1	124.7
0	125983	823.1	124.5
0	125984	823.1	124.3
0	125985	823.1	124.1
0	125986	823.1	123.9
0	125987	823.1	123.7
0	125988	823.1	123.5
0	125989	823.1	123.3
0	125990	823.1	123.1
0	125991	823.1	122.9
0	125992	823.1	122.7
0	125993	823.1	122.5
0	125994	823.1	122.3
0	125995	823.1	122.1
0	125996	823.1	121.9
0	125997	823.1	121.7
0	125998	823.1	121.5
0	125999	823.1	121.3
0	126000	823.1	121.1
0	126001	823.1	120.9
0	126002	823.1	120.7
0	126003	823.1	120.5
0	126004	823.1	120.3
0	126005	823.1	120.1
0	126006	823.1	119.9
0	126007	823.1	119.7
0	126008	823.1	119.5
0	126009	823.1	119.3
0	126010	823.1	303.1
0	126011	823.1	302.9
0	126012	823.1	302.7
0	126013	823.1	302.5
0	126014	823.1	302.3
0	126015	823.1	302.1
0	126016	823.1	301.9
0	126017	823.1	301.7
0	126018	823.1	301.5
0	126019	823.1	301.3
0	126020	823.1	301.1
0	126021	823.1	300.9
0	126022	823.1	300.7
0	126023	823.1	300.5
0	126024	823.1	300.3
0	126025	823.1	300.1
0	126026	823.1	299.9
0	126027	823.1	299.7
0	126028	823.1	299.5
0	126029	823.1	299.3
0	126030	823.1	405.1
0	126031	823.1	404.9
0	126032	823.1	404.7
0	126033	823.1	404.5
0	126034	823.1	404.3
0	126035	823.1	504.1
0	126036	823.1	404.1
0	126037	823.1	503.9
0	126038	823.1	403.9
0	126039	823.1	503.7
0	126040	823.1	403.7
0	126041	823.1	503.5
0	126042	823.1	403.5
0	126043	823.1	503.3
0	126044	823.1	403.3
0	126045	823.1	503.1
0	126046	823.1	403.1
0	126047	823.1	502.9
0	126048	823.1	402.9
0	126049	823.1	502.7
0	126050	823.1	402.7
0	126051	823.1	502.5
0	126052	823.1	402.5
0	126053	823.1	502.3
0	126054	823.1	402.3
0	126055	823.1	502.1
0	126056	823.1	402.1
0	126057	823.1	501.9
0	126058	823.1	401.9
0	126059	823.1	501.7
0	126060	823.1	401.7
0	126061	823.1	501.5
0	126062	823.1	401.5
0	126063	823.1	501.3
0	126064	823.1	401.3
0	126065	823.1	501.1
0	126066	823.1	401.1
0	126067	823.1	500.9
0	126068	823.1	400.9
0	126069	823.1	500.7
0	126070	823.1	400.7
0	126071	823.1	500.5
0	126072	823.1	400.5
0	126073	823.1	500.3
0	126074	823.1	400.3
0	126075	823.1	500.1
0	126076	823.1	400.1
0	126077	823.1	499.9
0	126078	823.1	399.9
0	126079	823.1	499.7
0	126080	823.1	399.7
0	126081	823.1	499.5
0	126082	823.1	399.5
0	126083	823.1	499.3
0	126084	823.1	399.3
0	126085	823.1	399.1
[...]
0	178856	971.2	27.4
0	178857	971.2	27.2
0	178858	971.2	27
0	178859	971.2	26.8
0	178860	971.2	26.6
0	178861	971.2	26.4
0	178862	971.2	26.2
0	178863	971.2	26
0	178864	971.2	25.8
0	178865	971.2	25.6
0	178866	971.2	25.4
0	178867	971.2	25.2
0	178868	971.2	25
0	178869	971.2	24.8
0	178870	971.2	24.6
0	178871	971.2	24.4
0	178872	971.2	24.2
0	178873	971.2	24
0	178874	971.2	23.8
0	178875	971.2	23.6
0	178876	971.2	23.4
0	178877	971.2	23.2
0	178878	971.2	23
0	178879	971.2	22.8
0	178880	971.2	22.6
0	178881	971.2	22.4
0	178882	971.2	22.2
0	178883	971.2	22
0	178884	971.2	21.8
0	178885	971.2	21.6
0	178886	971.2	21.4
0	178887	971.2	21.2
0	178888	971.2	21
0	178889	971.2	20.8
0	178890	971.2	20.6
0	178891	971.2	20.4
0	178892	971.2	20.2
0	178893	971.2	20
0	178894	971.2	19.8
0	178895	971.2	19.6
0	178896	971.2	19.4
0	178897	971.2	19.2
0	178898	971.2	19
0	178899	971.2	18.8
0	178900	971.2	18.6
0	178901	971.2	18.4
0	178902	971.2	18.2
0	178903	971.2	18
0	178904	971.2	17.8
0	178905	971.2	17.6
0	178906	971.2	17.4
0	178907	971.2	17.2
0	178908	971.2	17
0	178909	971.2	16.8
0	178910	971.2	16.6
0	178911	971.2	16.4
0	178912	971.2	16.2
0	178913	971.2	16
0	178914	971.2	15.8
0	178915	971.2	15.6
0	178916	971.2	15.4
0	178917	971.2	15.2
0	178918	971.2	15
0	178919	971.2	14.8
0	178920	971.2	14.6
0	178921	971.2	14.4
0	178922	971.2	14.2
0	178923	971.2	14
0	178924	971.2	13.8
0	178925	971.2	13.6
0	178926	971.2	13.4
0	178927	971.2	13.2
0	178928	971.2	13
0	178929	971.2	12.8
0	178930	971.2	12.6
0	178931	971.2	12.4
0	178932	971.2	12.2
0	178933	971.2	12
0	178934	971.2	11.8
0	178935	971.2	11.6
0	178936	971.2	11.4
0	178937	971.2	11.2
0	178938	971.2	11
0	178939	971.2	10.8
0	178940	971.2	10.6
0	178941	971.2	10.4
0	178942	971.2	10.2
0	178943	971.2	10
0	178944	971.2	9.8
0	178945	971.2	9.6
0	178946	971.2	9.4
0	178947	971.2	9.2
0	178948	971.2	9
0	178949	971.2	8.8
0	178950	971.2	8.6
0	178951	971.2	8.4
0	178952	971.2	8.2
0	178953	971.2	8
0	178954	971.2	7.8
0	178955	971.2	7.6
0	178956	971.2	7.4
0	178957	971.2	7.2
0	178958	971.2	7
0	178959	971.2	6.8
0	178960	971.2	6.6
0	178961	971.2	6.4
0	178962	971.2	6.2
0	178963	971.2	6
0	178964	971.2	5.8
0	178965	971.2	5.6
0	178966	971.2	5.4
0	178967	971.2	5.2
0	178968	971.2	5
0	178969	971.2	4.8
0	178970	971.2	4.6
0	178971	971.2	4.4
0	178972	971.2	4.2
0	178973	971.2	4
0	178974	971.2	3.8
0	178975	971.2	3.6
0	178976	971.2	3.4
0	178977	971.2	3.2
0	178978	971.2	3
0	178979	971.2	2.8
0	178980	971.2	2.6
0	178981	971.2	2.4
0	182120	972.4	3.4
0	182121	972.4	3.2
0	182122	972.4	3
0	182123	972.4	2.8
0	182124	972.4	2.6
0	182125	972.4	2.4
0	182126	972.4	2.2
0	182127	972.4	2
0	182128	972.4	1.8
0	182129	972.4	1.6
0	182130	972.4	1.4
0	182796	972.6	1.4
0	183519	972.8	1.4
0	183562	973	1.4
0	183605	973.2	1.4
0	183648	973.4	1.4
0	183691	973.6	1.4
0	183756	973.8	1.4
0	183800	974	1.4
0	183838	974.2	1.4
0	183876	974.4	1.4
0	183914	974.6	1.4
0	183952	974.8	1.4
0	184112	975	1.4
0	194805	993.3	18.3
0	194806	993.3	18.1
0	194807	993.3	17.9
0	194808	993.3	17.7
0	194809	993.3	17.5
0	194810	993.3	17.3
0	194811	993.3	17.1
0	194812	993.3	16.9
0	194813	993.3	16.7
0	194814	993.3	16.5
0	194815	993.3	16.3
0	194816	993.3	16.1
0	194817	993.3	15.9
0	194818	993.3	15.7
0	194819	993.3	15.5
0	194820	993.3	15.3
0	194821	993.3	15.1
0	194822	993.3	14.9
0	194823	993.3	14.7
0	194824	993.3	14.5
0	194825	993.3	14.3
0	194826	993.3	14.1
0	194827	993.3	13.9
0	194828	993.3	13.7
0	194829	993.3	13.5
0	194830	993.3	13.3
0	194831	993.3	13.1
0	194832	993.3	12.9
0	194833	993.3	12.7
0	194834	993.3	12.5
0	194835	993.3	273.5
0	194836	993.3	273.3
0	194837	993.3	273.1
0	194838	993.3	272.9
0	194839	993.3	272.7
0	194840	993.3	272.5
0	194841	993.3	271.3
0	194842	993.3	271.1
0	194843	993.3	270.9
0	194844	993.3	270.7
0	194845	993.3	270.5
0	194846	993.3	270.3
0	194847	993.3	270.1
0	194848	993.3	269.9
0	194849	993.3	269.7
0	194850	993.3	269.5
0	194851	993.3	269.3
0	194852	993.3	269.1
0	194853	993.3	268.9
0	194854	993.3	268.7
0	194855	993.3	268.5
0	194856	993.3	268.3
0	194857	993.3	268.1
0	194858	993.3	267.9
0	194859	993.3	267.7
0	194860	993.3	267.5
0	194861	993.3	267.3
0	194862	993.3	267.1
0	194863	993.3	266.9
0	194864	993.3	266.7
0	194865	993.3	266.5
0	194866	993.3	266.3
0	194867	993.3	266.1
0	194868	993.3	265.9
0	194869	993.3	265.7
0	194870	993.3	265.5
0	194871	993.3	265.3
0	194872	993.3	265.1
0	194873	993.3	264.9
0	194874	993.3	264.7
0	194875	993.3	264.5
0	194876	993.3	264.3
0	194877	993.3	264.1
0	194878	993.3	263.9
0	194879	993.3	263.7
0	194880	993.3	263.5
0	194881	993.3	263.3
0	194882	993.3	263.1
0	194883	993.3	262.9
0	194884	993.3	262.7
0	194885	993.3	262.5
0	194886	993.3	262.3
0	194887	993.3	262.1
0	194888	993.3	261.9
0	194889	993.3	261.7
0	194890	993.3	261.5
0	194891	993.3	261.3
0	194892	993.3	261.1
0	194893	993.3	260.9
0	194894	993.3	260.7
0	194895	993.3	260.5
0	194896	993.3	260.3
0	194897	993.3	260.1
0	194898	993.3	259.9
0	194899	993.3	259.7
0	194900	993.3	259.5
0	194901	993.3	259.3
0	194902	993.3	259.1
0	194903	993.3	258.9
0	194904	993.3	258.7
0	194905	993.3	258.5
0	194906	993.3	258.3
0	194907	993.3	258.1
0	194908	993.3	257.9
0	194909	993.3	257.7
0	194910	993.3	257.5
0	194911	993.3	257.3
0	194912	993.3	257.1
0	194913	993.3	256.9
0	194914	993.3	256.7
0	194915	993.3	256.5
0	194916	993.3	256.3
0	194917	993.3	256.1
0	194918	993.3	255.9
0	194919	993.3	255.7
0	194920	993.3	255.5
0	194921	993.3	255.3
0	194922	993.3	255.1
0	194923	993.3	254.9
0	194924	993.3	254.7
0	194925	993.3	254.5
0	194926	993.3	254.3
0	194927	993.3	254.1
0	194928	993.3	253.9
0	194929	993.3	253.7
0	194930	993.3	253.5
0	194931	993.3	253.3
0	194932	993.3	253.1
0	194933	993.3	252.9
0	194934	993.3	252.7
0	194935	993.3	252.5
0	194936	993.3	252.3
0	194937	993.3	252.1
0	194938	993.3	251.9
0	194939	993.3	251.7
0	194940	993.3	251.5
0	194941	993.3	251.3
0	194942	993.3	251.1
0	194943	993.3	250.9
0	194944	993.3	250.7
0	194945	993.3	250.5
0	194946	993.3	250.3
0	194947	993.3	250.1
0	194948	993.3	249.9
0	194949	993.3	249.7
0	194950	993.3	249.5
0	194951	993.3	249.3
0	194952	993.3	249.1
0	194953	993.3	248.9
0	194954	993.3	248.7
0	194955	993.3	248.5
0	194956	993.3	402.3
0	194957	993.3	402.1
0	194958	993.3	401.9
0	194959	993.3	401.7
0	194960	993.3	401.5
0	194961	993.3	401.3
0	194962	993.3	401.1
0	194963	993.3	400.9
0	194964	993.3	400.7
0	194965	993.3	400.5
0	194966	993.3	400.3
0	194967	993.3	400.1
0	194968	993.3	399.9
0	194969	993.3	399.7
0	194970	993.3	399.5
0	194971	993.3	399.3
0	194972	993.3	399.1
0	194973	993.3	398.9
0	194974	993.3	398.7
0	194975	993.3	398.5
0	194976	993.3	398.3
0	194977	993.3	398.1
0	194978	993.3	397.9
0	194979	993.3	397.7
0	194980	993.3	397.5
0	194981	993.3	397.3
0	194982	993.3	397.1
0	194983	993.3	396.9
0	194984	993.3	396.7
0	194985	993.3	396.5
0	194986	993.3	396.3
0	194987	993.3	396.1
0	194988	993.3	395.9
0	194989	993.3	395.7
0	194990	993.3	395.5
0	194991	993.3	395.3
0	194992	993.3	395.1
0	194993	993.3	394.9
0	194994	993.3	394.7
0	194995	993.3	394.5
0	194996	993.3	394.3
0	194997	993.3	394.1
0	194998	993.3	393.9
0	194999	993.3	393.7
0	195000	993.3	393.5
0	195001	993.3	393.3
0	195002	993.3	393.1
0	195003	993.3	392.9
0	195004	993.3	392.7
0	195005	993.3	392.5
0	195006	993.3	392.3
0	195007	993.3	392.1
0	195008	993.3	391.9
0	195009	993.3	391.7
0	195010	993.3	391.5
0	195011	993.3	391.3
0	195012	993.3	391.1
0	195013	993.3	390.9
0	195014	993.3	390.7
0	195015	993.3	390.5
0	195016	993.3	390.3
0	195017	993.3	390.1
0	195018	993.3	389.9
0	195019	993.3	389.7
0	195020	993.3	389.5
0	195021	993.3	389.3
0	195022	993.3	389.1
0	195023	993.3	388.9
0	195024	993.3	388.7
0	195025	993.3	388.5
0	195026	993.3	388.3
0	195027	993.3	388.1
0	195028	993.3	387.9
0	195029	993.3	387.7
0	195030	993.3	387.5
0	195031	993.3	387.3
0	195032	993.3	387.1
0	195033	993.3	386.9
0	195034	993.3	386.7
0	195035	993.3	386.5
0	195036	993.3	386.3
0	195037	993.3	386.1
0	195038	993.3	385.9
0	195039	993.3	385.7
0	195040	993.3	385.5
0	195041	993.3	385.3
0	195042	993.3	385.1
0	195043	993.3	384.9
0	195044	993.3	384.7
0	195045	993.3	384.5
0	195046	993.3	384.3
0	195047	993.3	384.1
0	195048	993.3	383.9
0	195049	993.3	383.7
0	195050	993.3	383.5
0	195051	993.3	383.3
0	195052	993.3	383.1
0	195053	993.3	382.9
0	195054	993.3	382.7
0	195055	993.3	382.5
0	195056	993.3	382.3
0	195057	993.3	382.1
0	195058	993.3	381.9
0	195059	993.3	381.7
0	195060	993.3	381.5
0	195061	993.3	381.3
0	195062	993.3	381.1
0	195063	993.3	380.9
0	195064	993.3	380.7
0	195065	993.3	380.5
0	195066	993.3	380.3
0	195067	993.3	380.1
0	195068	993.3	379.9
0	195069	993.3	379.7
0	195070	993.3	379.5
0	195071	993.3	379.3
0	195072	993.3	379.1
0	195073	993.3	378.9
0	195074	993.3	378.7
0	195075	993.3	378.5
0	195076	993.3	378.3
0	195077	993.3	378.1
0	195078	993.3	377.9
0	195079	993.3	377.7
0	195080	993.3	377.5
0	195081	993.3	377.3
0	195082	993.3	377.1
0	195083	993.3	376.9
0	195084	993.3	376.7
0	195085	993.3	376.5
0	195086	993.3	376.3
0	195087	993.3	376.1
0	195088	993.3	375.9
0	195089	993.3	375.7
0	195090	993.3	375.5
0	195091	993.3	375.3
0	195092	993.3	375.1
0	195093	993.3	374.9
0	195094	993.3	374.7
0	195095	993.3	374.5
0	195096	993.3	374.3
0	195097	993.3	374.1
0	195098	993.3	373.9
0	195099	993.3	373.7
0	195100	993.3	373.5
0	195101	993.3	373.3
0	195102	993.3	373.1
0	195103	993.3	372.9
0	195104	993.3	372.7
0	195105	993.3	372.5
0	195106	993.3	372.3
0	195107	993.3	372.1
0	195108	993.3	371.9
0	195109	993.3	371.7
0	195110	993.3	371.5
0	195111	993.3	371.3
0	195112	993.3	371.1
0	195113	993.3	370.9
0	195114	993.3	370.7
0	195115	993.3	370.5
0	195116	993.3	370.3
0	195117	993.3	370.1
0	195118	993.3	369.9
0	195119	993.3	369.7
0	195120	993.3	369.5
0	195121	993.3	369.3
0	195122	993.3	369.1
0	195123	993.3	368.9
0	195124	993.3	368.7
0	195125	993.3	368.5
0	195126	993.3	368.3
0	195127	993.3	368.1
0	195128	993.3	367.9
0	195129	993.3	367.7
0	195130	993.3	367.5
0	195131	993.3	367.3
0	195132	993.3	367.1
0	195133	993.3	366.9
0	195134	993.3	366.7
0	195135	993.3	366.5
0	195136	993.3	366.3
0	195137	993.3	366.1
0	195138	993.3	365.9
0	195139	993.3	365.7
0	195140	993.3	365.5
0	195141	993.3	365.3
0	195142	993.3	365.1
0	195143	993.3	364.9
0	195144	993.3	364.7
0	195145	993.3	364.5
0	195146	993.3	364.3
0	195147	993.3	364.1
0	195148	993.3	363.9
0	195149	993.3	363.7
0	195150	993.3	363.5
0	195151	993.3	363.3
0	195152	993.3	363.1
0	195153	993.3	362.9
0	195154	993.3	362.7
0	195155	993.3	362.5
0	195156	993.3	362.3
0	195157	993.3	362.1
0	195158	993.3	361.9
0	195159	993.3	361.7
0	195160	993.3	361.5
0	195161	993.3	361.3
0	195162	993.3	361.1
0	195163	993.3	360.9
0	195164	993.3	360.7
0	195165	993.3	360.5
0	195166	993.3	360.3
0	195167	993.3	360.1
0	195168	993.3	359.9
0	195169	993.3	359.7
0	195170	993.3	359.5
0	195171	993.3	359.3
0	195172	993.3	359.1
0	195173	993.3	358.9
0	195174	993.3	358.7
0	195175	993.3	358.5
0	195176	993.3	358.3
0	195177	993.3	358.1
0	195178	993.3	357.9
0	195179	993.3	357.7
0	195180	993.3	357.5
0	195181	993.3	357.3
0	195182	993.3	357.1
0	195183	993.3	356.9
0	195184	993.3	356.7
0	195185	993.3	356.5
0	195186	993.3	356.3
0	195187	993.3	356.1
0	195188	993.3	355.9
0	195189	993.3	355.7
0	195190	993.3	355.5
0	195191	993.3	355.3
0	195192	993.3	355.1
0	195193	993.3	354.9
0	195194	993.3	354.7
0	195195	993.3	354.5
0	195196	993.3	354.3
0	195197	993.3	354.1
0	195198	993.3	353.9
0	195199	993.3	353.7
0	195200	993.3	353.5
0	195201	993.3	353.3
0	195202	993.3	353.1
0	195203	993.3	352.9
0	195204	993.3	352.7
0	195205	993.3	352.5
0	195206	993.3	352.3
0	195207	993.3	352.1
0	195208	993.3	351.9
0	195209	993.3	351.7
0	195210	993.3	351.5
0	195211	993.3	351.3
0	195212	993.3	351.1
0	195213	993.3	350.9
0	195214	993.3	350.7
0	195215	993.3	350.5
0	195216	993.3	350.3
0	195217	993.3	350.1
0	195218	993.3	349.9
0	195219	993.3	349.7
0	195220	993.3	349.5
0	195221	993.3	349.3
0	195222	993.3	349.1
0	195223	993.3	348.9
0	195224	993.3	348.7
0	195225	993.3	348.5
0	195226	993.3	348.3
0	195227	993.3	248.3
0	195228	993.3	348.1
0	195229	993.3	248.1
0	195230	993.3	347.9
0	195231	993.3	247.9
0	195232	993.3	347.7
0	195233	993.3	247.7
0	195234	993.3	347.5
0	195235	993.3	247.5
0	195236	993.3	347.3
0	195237	993.3	247.3
0	195238	993.3	347.1
0	195239	993.3	247.1
0	195240	993.3	346.9
0	195241	993.3	246.9
0	195242	993.3	346.7
0	195243	993.3	246.7
0	195244	993.3	346.5
0	195245	993.3	246.5
0	195246	993.3	346.3
0	195247	993.3	246.3
0	195248	993.3	346.1
0	195249	993.3	246.1
0	195250	993.3	345.9
0	195251	993.3	245.9
0	195252	993.3	345.7
0	195253	993.3	245.7
0	195254	993.3	345.5
0	195255	993.3	245.5
0	195256	993.3	345.3
0	195257	993.3	245.3
0	195258	993.3	345.1
0	195259	993.3	245.1
0	195260	993.3	344.9
0	195261	993.3	244.9
0	195262	993.3	344.7
0	195263	993.3	244.7
0	195264	993.3	344.5
0	195265	993.3	244.5
0	195266	993.3	244.3
0	195267	993.3	244.1
0	195268	993.3	243.9
0	195269	993.3	243.7
0	195270	993.3	243.5
0	195271	993.3	243.3
0	195272	993.3	243.1
0	195273	993.3	242.9
0	195274	993.3	242.7
0	195275	993.3	242.5
0	195276	993.3	242.3
0	195277	993.3	242.1
0	195278	993.3	241.9
0	195279	993.3	241.7
0	195280	993.3	241.5
0	195281	993.3	241.3
0	195282	993.3	241.1
0	195283	993.3	240.9
0	195284	993.3	240.7
0	195285	993.3	240.5
0	195286	993.3	240.3
0	195287	993.3	240.1
0	195288	993.3	239.9
0	195289	993.3	239.7
0	195290	993.3	239.5
0	195291	993.3	239.3
0	195292	993.3	239.1
0	195293	993.3	238.9
0	195294	993.3	238.7
0	195295	993.3	238.5
0	195296	993.3	238.3
0	195297	993.3	238.1
0	195298	993.3	237.9
0	195299	993.3	237.7
0	195300	993.3	237.5
0	195301	993.3	237.3
0	195302	993.3	237.1
0	195303	993.3	236.9
0	195304	993.3	236.7
0	195305	993.3	236.5
0	195306	993.3	236.3
0	195307	993.3	236.1
0	195308	993.3	235.9
0	195309	993.3	235.7
0	195310	993.3	235.5
0	195311	993.3	235.3
0	195312	993.3	235.1
0	195313	993.3	234.9
0	195314	993.3	234.7
0	195315	993.3	234.5
0	195316	993.3	234.3
0	195317	993.3	234.1
0	195318	993.3	233.9
0	195319	993.3	233.7
0	195320	993.3	233.5
0	195321	993.3	344.3
0	195322	993.3	344.1
0	195323	993.3	343.9
0	195324	993.3	343.7
0	195325	993.3	343.5
0	195326	993.3	343.3
0	195327	993.3	343.1
0	195328	993.3	342.9
0	195329	993.3	342.7
0	195330	993.3	342.5
0	195331	993.3	342.3
0	195332	993.3	342.1
0	195333	993.3	341.9
0	195334	993.3	341.7
0	195335	993.3	341.5
0	195336	993.3	341.3
0	195337	993.3	341.1
0	195338	993.3	340.9
0	195339	993.3	340.7
0	195340	993.3	340.5
0	195341	993.3	340.3
0	195342	993.3	340.1
0	195343	993.3	339.9
0	195344	993.3	339.7
0	195345	993.3	339.5
0	195346	993.3	339.3
0	195347	993.3	339.1
0	195348	993.3	338.9
0	195349	993.3	338.7
0	195350	993.3	338.5
0	195351	993.3	338.3
0	195352	993.3	338.1
0	195353	993.3	337.9
0	195354	993.3	337.7
0	195355	993.3	337.5
0	195356	993.3	337.3
0	195357	993.3	337.1
0	195358	993.3	336.9
0	195359	993.3	336.7
0	195360	993.3	336.5
0	195361	993.3	336.3
0	195362	993.3	336.1
0	195363	993.3	335.9
0	195364	993.3	335.7
0	195365	993.3	335.5
0	195366	993.3	335.3
0	195367	993.3	335.1
0	195368	993.3	334.9
0	195369	993.3	334.7
0	195370	993.3	334.5
0	195371	993.3	334.3
0	195372	993.3	334.1
0	195373	993.3	333.9
0	195374	993.3	333.7
0	195375	993.3	333.5
0	195376	993.3	333.3
0	195377	993.3	233.3
0	195378	993.3	333.1
0	195379	993.3	233.1
0	195380	993.3	332.9
0	195381	993.3	232.9
0	195382	993.3	332.7
0	195383	993.3	232.7
0	195384	993.3	332.5
0	195385	993.3	232.5
0	195386	993.3	332.3
0	195387	993.3	232.3
0	195388	993.3	332.1
0	195389	993.3	232.1
0	195390	993.3	331.9
0	195391	993.3	231.9
0	195392	993.3	331.7
0	195393	993.3	231.7
0	195394	993.3	331.5
0	195395	993.3	231.5
0	195396	993.3	331.3
0	195397	993.3	231.3
0	195398	993.3	331.1
0	195399	993.3	231.1
0	195400	993.3	330.9
0	195401	993.3	230.9
0	195402	993.3	330.7
0	195403	993.3	230.7
0	195404	993.3	330.5
0	195405	993.3	230.5
0	195406	993.3	330.3
0	195407	993.3	230.3
0	195408	993.3	330.1
0	195409	993.3	230.1
0	195410	993.3	329.9
0	195411	993.3	229.9
0	195412	993.3	329.7
0	195413	993.3	229.7
0	195414	993.3	329.5
0	195415	993.3	229.5
0	195416	993.3	229.3
0	195417	993.3	229.1
0	195418	993.3	228.9
0	195419	993.3	228.7
0	195420	993.3	228.5
0	195421	993.3	228.3
0	195422	993.3	228.1
0	195423	993.3	227.9
0	195424	993.3	227.7
0	195425	993.3	227.5
0	195426	993.3	227.3
0	195427	993.3	227.1
0	195428	993.3	226.9
0	195429	993.3	226.7
0	195430	993.3	226.5
0	195431	993.3	226.3
0	195432	993.3	226.1
0	195433	993.3	225.9
0	195434	993.3	225.7
0	195435	993.3	225.5
0	195436	993.3	225.3
0	195437	993.3	225.1
0	195438	993.3	224.9
0	195439	993.3	224.7
0	195440	993.3	224.5
0	195441	993.3	224.3
0	195442	993.3	224.1
0	195443	993.3	223.9
0	195444	993.3	223.7
0	195445	993.3	223.5
0	195446	993.3	223.3
0	195447	993.3	223.1
0	195448	993.3	222.9
0	195449	993.3	222.7
0	195450	993.3	222.5
0	195451	993.3	222.3
0	195452	993.3	222.1
0	195453	993.3	221.9
0	195454	993.3	221.7
0	195455	993.3	221.5
0	195456	993.3	12.3
0	195457	993.3	12.1
0	195458	993.3	11.9
0	195459	993.3	11.7
0	195460	993.3	11.5
0	195461	993.3	19.5
0	195462	993.3	19.3
0	195463	993.3	19.1
0	195464	993.3	18.9
0	195465	993.3	18.7
0	195466	993.3	18.5
0	195467	993.3	141.3
0	195468	993.3	141.1
0	195469	993.3	140.9
0	195470	993.3	140.7
0	195471	993.3	140.5
0	195472	993.3	140.3
0	195473	993.3	140.1
0	195474	993.3	139.9
0	195475	993.3	139.7
0	195476	993.3	139.5
0	195477	993.3	139.3
0	195478	993.3	139.1
0	195479	993.3	138.9
0	195480	993.3	138.7
0	195481	993.3	138.5
0	195482	993.3	138.3
0	195483	993.3	138.1
0	195484	993.3	137.9
0	195485	993.3	137.7
0	195486	993.3	137.5
0	195487	993.3	137.3
0	195488	993.3	137.1
0	195489	993.3	136.9
0	195490	993.3	136.7
0	195491	993.3	136.5
0	195492	993.3	136.3
0	195493	993.3	136.1
0	195494	993.3	135.9
0	195495	993.3	135.7
0	195496	993.3	135.5
0	195497	993.3	135.3
0	195498	993.3	135.1
0	195499	993.3	134.9
0	195500	993.3	134.7
0	195501	993.3	134.5
0	195502	993.3	134.3
0	195503	993.3	134.1
0	195504	993.3	133.9
0	195505	993.3	133.7
0	195506	993.3	133.5
0	195507	993.3	133.3
0	195508	993.3	133.1
0	195509	993.3	132.9
0	195510	993.3	132.7
0	195511	993.3	132.5
0	195512	993.3	132.3
0	195513	993.3	132.1
0	195514	993.3	131.9
0	195515	993.3	131.7
0	195516	993.3	131.5
0	195517	993.3	131.3
0	195518	993.3	131.1
0	195519	993.3	130.9
0	195520	993.3	130.7
0	195521	993.3	130.5
0	195522	993.3	130.3
0	195523	993.3	130.1
0	195524	993.3	129.9
0	195525	993.3	129.7
0	195526	993.3	129.5
0	195527	993.3	129.3
0	195528	993.3	129.1
0	195529	993.3	128.9
0	195530	993.3	128.7
0	195531	993.3	128.5
0	195532	993.3	128.3
0	195533	993.3	128.1
0	195534	993.3	127.9
0	195535	993.3	127.7
0	195536	993.3	127.5
0	195537	993.3	127.3
0	195538	993.3	127.1
0	195539	993.3	126.9
0	195540	993.3	126.7
0	195541	993.3	126.5
0	195542	993.3	126.3
0	195543	993.3	126.1
0	195544	993.3	125.9
0	195545	993.3	125.7
0	195546	993.3	125.5
0	195547	993.3	125.3
0	195548	993.3	125.1
0	195549	993.3	124.9
0	195550	993.3	124.7
0	195551	993.3	124.5
0	195552	993.3	124.3
0	195553	993.3	124.1
0	195554	993.3	123.9
0	195555	993.3	123.7
0	195556	993.3	123.5
0	195557	993.3	123.3
0	195558	993.3	123.1
0	195559	993.3	122.9
0	195560	993.3	122.7
0	195561	993.3	122.5
0	195562	993.3	122.3
0	195563	993.3	122.1
0	195564	993.3	121.9
0	195565	993.3	121.7
0	195566	993.3	121.5
0	195567	993.3	121.3
0	195568	993.3	121.1
0	195569	993.3	120.9
0	195570	993.3	120.7
0	195571	993.3	120.5
0	195572	993.3	120.3
0	195573	993.3	120.1
0	195574	993.3	119.9
0	195575	993.3	119.7
0	195576	993.3	119.5
0	195577	993.3	119.3
0	195578	993.3	119.1
0	195579	993.3	118.9
0	195580	993.3	118.7
0	195581	993.3	118.5
0	195582	993.3	118.3
0	195583	993.3	118.1
0	195584	993.3	117.9
0	195585	993.3	117.7
0	195586	993.3	117.5
0	195587	993.3	117.3
0	195588	993.3	117.1
0	195589	993.3	116.9
0	195590	993.3	116.7
0	195591	993.3	116.5
0	195592	993.3	116.3
0	195593	993.3	116.1
0	195594	993.3	115.9
0	195595	993.3	115.7
0	195596	993.3	115.5
0	195597	993.3	115.3
0	195598	993.3	115.1
0	195599	993.3	114.9
0	195600	993.3	114.7
0	195601	993.3	114.5
0	195602	993.3	114.3
0	195603	993.3	114.1
0	195604	993.3	113.9
0	195605	993.3	113.7
0	195606	993.3	113.5
0	195607	993.3	113.3
0	195608	993.3	113.1
0	195609	993.3	112.9
0	195610	993.3	112.7
0	195611	993.3	112.5
0	195612	993.3	112.3
0	195613	993.3	112.1
0	195614	993.3	111.9
0	195615	993.3	111.7
0	195616	993.3	111.5
0	195617	993.3	111.3
0	195618	993.3	111.1
0	195619	993.3	110.9
0	195620	993.3	110.7
0	195621	993.3	110.5


