version 2
run General-0-20241228-12:42:45-3565
attr configname General
attr datetime 20241228-12:42:45
attr experiment General
attr inifile shaw.ini
attr iterationvars ""
attr iterationvarsf ""
attr measurement ""
attr network src.dtnsim
attr processid 3565
attr repetition 0
attr replication #0
attr resultdir results
attr runnumber 0
attr seedset 0
param dtnsim.nodesNumber 6
param dtnsim.node[1].icon "\"receiverdish\""
param dtnsim.node[2..5].icon "\"satellite\""
param dtnsim.node[6].icon "\"receiverdish\""
param dtnsim.node[*].dtn.routing "\"cgrModelRev17\""
param dtnsim.central.contactsFile "\"contactPlan/shaw_contact.txt\""
param dtnsim.node[*].dtn.routingType "\"routeListType:allPaths-firstEnding,volumeAware:allContacts,extensionBlock:on,contactPlan:global\""
param dtnsim.node[*].dtn.printRoutingDebug true
param dtnsim.node[1].app.enable true
param dtnsim.node[*].app.custodyTransfer true
param dtnsim.node[1].app.bundlesNumber "\"1000\""
param dtnsim.node[1].app.start "\"0\""
param dtnsim.node[1].app.destinationEid "\"6\""
param dtnsim.node[1].app.size "\"1500\""
param dtnsim.node[1].app.interval 1

vector 0 dtnsim.node[6].app appBundleReceivedDelayvec:vector ETV
attr interpolationmode none
attr source appBundleReceivedDelay
attr title "appBundleReceivedDelayvec, vector"
0	2334	79.1	79.1
0	2335	79.1	78.1
0	2336	79.1	77.1
0	2337	79.1	76.1
0	2338	79.1	75.1
0	2339	79.1	74.1
0	2340	79.1	73.1
0	2341	79.1	72.1
0	2342	79.1	71.1
0	2343	79.1	70.1
0	2344	79.1	69.1
0	2345	79.1	68.1
0	2346	79.1	67.1
0	2347	79.1	66.1
0	2348	79.1	65.1
0	2349	79.1	64.1
0	2350	79.1	63.1
0	2351	79.1	62.1
0	2352	79.1	61.1
0	2353	79.1	60.1
0	2354	79.1	59.1
0	2355	79.1	58.1
0	2356	79.1	57.1
0	2357	79.1	56.1
0	2358	79.1	55.1
0	2359	79.1	54.1
0	2360	79.1	53.1
0	2361	79.1	52.1
0	2362	79.1	51.1
0	2363	79.1	50.1
0	2364	79.1	49.1
0	2365	79.1	48.1
0	2366	79.1	47.1
0	2367	79.1	46.1
0	2368	79.1	45.1
0	2369	79.1	44.1
0	2370	79.1	43.1
0	2371	79.1	42.1
0	2372	79.1	41.1
0	2373	79.1	40.1
0	2374	79.1	39.1
0	2375	79.1	38.1
0	2376	79.1	37.1
0	2377	79.1	36.1
0	2378	79.1	35.1
0	2379	79.1	34.1
0	2380	79.1	33.1
0	2381	79.1	32.1
0	2382	79.1	31.1
0	2383	79.1	30.1
0	2384	79.1	29.1
0	2385	79.1	28.1
0	2386	79.1	27.1
0	2387	79.1	26.1
0	2388	79.1	25.1
0	2389	79.1	24.1
0	2390	79.1	23.1
0	2391	79.1	22.1
0	2392	79.1	21.1
0	2393	79.1	20.1
0	2394	79.1	19.1
0	2395	79.1	18.1
0	2396	79.1	17.1
0	2397	79.1	16.1
0	2398	79.1	15.1
0	2399	79.1	14.1
0	2400	79.1	13.1
0	2401	79.1	12.1
0	2402	79.1	11.1
0	2403	79.1	10.1
0	2404	79.1	9.1
0	2405	79.1	8.1
0	2406	79.1	7.1
0	2407	79.1	6.1
0	2408	79.1	5.1
0	2409	79.1	4.1
0	2410	79.1	3.1
0	2411	79.1	2.1
0	2828	79.3	1.3
0	2863	80.3	1.3
0	2894	81.3	1.3
0	4556	125.2	44.2
0	4557	125.2	43.2
0	4558	125.2	42.2
0	4559	125.2	41.2
0	4560	125.2	40.2
0	4561	125.2	39.2
0	4562	125.2	38.2
0	4563	125.2	37.2
0	4564	125.2	36.2
0	4565	125.2	35.2
0	4566	125.2	34.2
0	4567	125.2	33.2
0	4568	125.2	32.2
0	4569	125.2	31.2
0	4570	125.2	30.2
0	4571	125.2	29.2
0	4572	125.2	28.2
0	4573	125.2	27.2
0	4574	125.2	26.2
0	4575	125.2	25.2
0	4576	125.2	24.2
0	4577	125.2	23.2
0	4578	125.2	22.2
0	4579	125.2	21.2
0	4580	125.2	20.2
0	4581	125.2	19.2
0	4582	125.2	18.2
0	4583	125.2	17.2
0	4584	125.2	16.2
0	4585	125.2	15.2
0	4586	125.2	14.2
0	4587	125.2	13.2
0	4588	125.2	12.2
0	4589	125.2	11.2
0	4590	125.2	10.2
0	4591	125.2	9.2
0	4592	125.2	8.2
0	4593	125.2	7.2
0	4594	125.2	6.2
0	4595	125.2	5.2
0	4596	125.2	4.2
0	4597	125.2	3.2
0	4598	125.2	2.2
0	4824	125.3	1.3
0	4854	126.3	1.3
0	4883	127.3	1.3
0	4912	128.3	1.3
0	4942	129.3	1.3
0	4971	130.3	1.3
0	4999	131.3	1.3
0	5027	132.3	1.3
0	5056	133.3	1.3
0	5736	154.1	20.1
0	8317	204.1	69.1
0	8318	204.1	68.1
0	8319	204.1	67.1
0	8320	204.1	66.1
0	8321	204.1	65.1
0	8322	204.1	64.1
0	8323	204.1	63.1
0	8324	204.1	62.1
0	8325	204.1	61.1
0	8326	204.1	60.1
0	8327	204.1	59.1
0	8328	204.1	58.1
0	8329	204.1	57.1
0	8330	204.1	56.1
0	8331	204.1	55.1
0	8332	204.1	54.1
0	8333	204.1	53.1
0	8334	204.1	52.1
0	8335	204.1	51.1
0	8336	204.1	50.1
0	8337	204.1	49.1
0	8338	204.1	48.1
0	8339	204.1	47.1
0	8340	204.1	46.1
0	8341	204.1	45.1
0	8342	204.1	44.1
0	8343	204.1	43.1
0	8344	204.1	42.1
0	8345	204.1	41.1
0	8346	204.1	40.1
0	8347	204.1	39.1
0	8348	204.1	38.1
0	8349	204.1	37.1
0	8350	204.1	36.1
0	8351	204.1	35.1
0	8352	204.1	34.1
0	8353	204.1	33.1
0	8354	204.1	32.1
0	8355	204.1	31.1
0	8356	204.1	30.1
0	8357	204.1	29.1
0	8358	204.1	28.1
0	8359	204.1	27.1
0	8360	204.1	26.1
0	8361	204.1	25.1
0	8362	204.1	24.1
0	8363	204.1	23.1
0	8364	204.1	22.1
0	8365	204.1	21.1
0	8366	204.1	20.1
0	8367	204.1	19.1
0	8368	204.1	18.1
0	8369	204.1	17.1
0	8370	204.1	16.1
0	8371	204.1	15.1
0	8372	204.1	14.1
0	8373	204.1	13.1
0	8374	204.1	12.1
0	8375	204.1	11.1
0	8376	204.1	10.1
0	8377	204.1	9.1
0	8378	204.1	8.1
0	8379	204.1	7.1
0	8380	204.1	6.1
0	8381	204.1	5.1
0	8382	204.1	4.1
0	8383	204.1	3.1
0	8384	204.1	2.1
0	8407	204.2	1.2
0	8450	205.2	1.2
0	8510	206.2	1.2
0	8746	208.4	1.4
0	8747	208.4	2.4
0	8777	209.4	1.4
0	9405	213.4	4.4
0	9406	213.4	3.4
0	9407	213.4	2.4
0	9408	213.4	1.4
0	9495	214.4	1.4
0	9560	215.4	1.4
0	9619	216.4	1.4
0	9678	217.4	1.4
0	9699	218.4	1.4
0	10110	228.3	10.3
0	10111	228.3	9.3
0	10112	228.3	8.3
0	10113	228.3	7.3
0	10114	228.3	6.3
0	10115	228.3	5.3
0	10116	228.3	4.3
0	10117	228.3	3.3
0	10118	228.3	2.3
0	10119	228.3	1.3
0	10197	229.3	1.3
0	10243	230.3	1.3
0	10287	231.3	1.3
0	10334	232.3	1.3
0	10369	233.3	1.3
0	10403	234.3	1.3
0	10502	235.3	1.3
0	10534	236.3	1.3
0	10566	237.3	1.3
0	10598	238.3	1.3
0	10655	240.3	1.3
0	10687	241.3	1.3
0	10716	242.3	1.3
0	11018	254.4	12.4
0	11019	254.4	11.4
0	11020	254.4	10.4
0	11021	254.4	9.4
0	11022	254.4	8.4
0	11023	254.4	7.4
0	11024	254.4	6.4
0	11025	254.4	5.4
0	11026	254.4	4.4
0	11027	254.4	3.4
0	11028	254.4	2.4
0	11029	254.4	1.4
0	11058	255.4	1.4
0	11087	256.4	1.4
0	11119	257.4	1.4
0	11149	258.4	1.4
0	11179	259.4	1.4
0	11424	260.4	1.4
0	11460	261.4	1.4
0	11495	262.4	1.4
0	11533	263.4	1.4
0	14343	325.1	61.1
0	14344	325.1	60.1
0	14345	325.1	59.1
0	14346	325.1	58.1
0	14347	325.1	57.1
0	14348	325.1	56.1
0	14349	325.1	55.1
0	14350	325.1	54.1
0	14351	325.1	53.1
0	14352	325.1	52.1
0	14353	325.1	51.1
0	14354	325.1	50.1
0	14355	325.1	49.1
0	14356	325.1	48.1
0	14357	325.1	47.1
0	14358	325.1	46.1
0	14359	325.1	45.1
0	14360	325.1	44.1
0	14361	325.1	43.1
0	14362	325.1	42.1
0	14363	325.1	41.1
0	14364	325.1	40.1
0	14365	325.1	39.1
0	14366	325.1	38.1
0	14367	325.1	37.1
0	14368	325.1	36.1
0	14369	325.1	35.1
0	14370	325.1	34.1
0	14371	325.1	33.1
0	14372	325.1	32.1
0	14373	325.1	31.1
0	14374	325.1	30.1
0	14375	325.1	29.1
0	14376	325.1	28.1
0	14377	325.1	27.1
0	14378	325.1	26.1
0	14379	325.1	25.1
0	14380	325.1	124.1
0	14381	325.1	24.1
0	14382	325.1	23.1
0	14383	325.1	22.1
0	14384	325.1	21.1
0	14385	325.1	20.1
0	14386	325.1	19.1
0	14387	325.1	18.1
0	14388	325.1	17.1
0	14389	325.1	16.1
0	14390	325.1	15.1
0	14391	325.1	14.1
0	14392	325.1	13.1
0	14393	325.1	12.1
0	14394	325.1	11.1
0	14395	325.1	10.1
0	14396	325.1	9.1
0	14397	325.1	8.1
0	14398	325.1	7.1
0	14399	325.1	6.1
0	14400	325.1	5.1
0	14460	325.3	4.3
0	14461	325.3	3.3
0	14462	325.3	2.3
0	14463	325.3	1.3
0	14509	326.3	1.3
0	14572	327.3	1.3
0	14625	328.3	1.3
0	14666	329.3	1.3
0	14701	330.3	1.3
0	15382	335.2	5.2
0	15383	335.2	4.2
0	15384	335.2	3.2
0	15385	335.2	2.2
0	15415	335.4	1.4
0	15468	336.4	1.4
0	16606	355.1	19.1
0	16607	355.1	18.1
0	16608	355.1	17.1
0	16609	355.1	16.1
0	16610	355.1	15.1
0	16611	355.1	14.1
0	16612	355.1	13.1
0	16613	355.1	12.1
0	16614	355.1	11.1
0	16615	355.1	10.1
0	16616	355.1	9.1
0	16617	355.1	8.1
0	16618	355.1	7.1
0	16619	355.1	6.1
0	16620	355.1	5.1
0	16621	355.1	4.1
0	16622	355.1	3.1
0	17840	383.2	29.2
0	17841	383.2	28.2
0	17842	383.2	27.2
0	17843	383.2	26.2
0	17844	383.2	25.2
0	17845	383.2	24.2
0	17846	383.2	23.2
0	17847	383.2	22.2
0	19658	431.3	69.3
0	19659	431.3	68.3
0	19660	431.3	67.3
0	19661	431.3	66.3
0	19662	431.3	65.3
0	19663	431.3	64.3
0	19664	431.3	63.3
0	19665	431.3	62.3
0	19666	431.3	61.3
0	19667	431.3	60.3
0	19668	431.3	59.3
0	19669	431.3	58.3
0	19670	431.3	57.3
0	19671	431.3	56.3
0	19672	431.3	55.3
0	19673	431.3	54.3
0	19674	431.3	53.3
0	19675	431.3	52.3
0	19676	431.3	51.3
0	19677	431.3	50.3
0	19678	431.3	49.3
0	19679	431.3	48.3
0	19680	431.3	47.3
0	19681	431.3	46.3
0	19682	431.3	45.3
0	19683	431.3	44.3
0	19684	431.3	43.3
0	19685	431.3	42.3
0	19686	431.3	41.3
0	19687	431.3	40.3
0	19688	431.3	39.3
0	19689	431.3	38.3
0	19690	431.3	37.3
0	19691	431.3	36.3
0	19692	431.3	35.3
0	19693	431.3	34.3
0	19694	431.3	33.3
0	19695	431.3	32.3
0	19696	431.3	31.3
0	19697	431.3	30.3
0	19698	431.3	29.3
0	19699	431.3	28.3
0	19700	431.3	27.3
0	19701	431.3	26.3
0	19702	431.3	25.3
0	19703	431.3	24.3
0	19704	431.3	23.3
0	19705	431.3	22.3
0	19706	431.3	21.3
0	19707	431.3	20.3
0	19708	431.3	19.3
0	19709	431.3	18.3
0	19710	431.3	17.3
0	19711	431.3	16.3
0	19712	431.3	15.3
0	19713	431.3	14.3
0	19714	431.3	13.3
0	19715	431.3	12.3
0	19716	431.3	11.3
0	19717	431.3	10.3
0	19718	431.3	9.3
0	19719	431.3	8.3
0	19720	431.3	7.3
0	19721	431.3	6.3
0	19722	431.3	5.3
0	19723	431.3	4.3
0	19724	431.3	3.3
0	19725	431.3	2.3
0	19726	431.3	1.3
0	20617	436.2	5.2
0	20618	436.2	4.2
0	20619	436.2	3.2
0	20620	436.2	2.2
0	20658	436.3	1.3
0	20941	437.3	1.3
0	21378	438.3	1.3
0	21601	439.3	1.3
0	22053	440.3	1.3
0	22127	441.3	1.3
0	22199	442.3	1.3
0	23470	477.1	128.1
0	23471	477.1	33.1
0	23472	477.1	32.1
0	23473	477.1	31.1
0	23474	477.1	30.1
0	23475	477.1	29.1
0	23476	477.1	28.1
0	23477	477.1	27.1
0	23478	477.1	26.1
0	23479	477.1	25.1
0	23480	477.1	24.1
0	23481	477.1	23.1
0	23482	477.1	22.1
0	23483	477.1	21.1
0	23484	477.1	20.1
0	23485	477.1	19.1
0	23486	477.1	18.1
0	23487	477.1	17.1
0	23488	477.1	16.1
0	23489	477.1	15.1
0	23490	477.1	14.1
0	23491	477.1	13.1
0	23492	477.1	12.1
0	23493	477.1	11.1
0	23494	477.1	10.1
0	23495	477.1	9.1
0	23496	477.1	8.1
0	23497	477.1	7.1
0	23498	477.1	6.1
0	23499	477.1	5.1
0	23500	477.1	4.1
0	23501	477.1	3.1
0	23502	477.1	2.1
0	23518	477.4	1.4
0	24159	502.1	25.1
0	24160	502.1	24.1
0	24161	502.1	23.1
0	24162	502.1	22.1
0	24163	502.1	21.1
0	24164	502.1	20.1
0	24165	502.1	19.1
0	24166	502.1	18.1
0	24167	502.1	17.1
0	24168	502.1	16.1
0	24169	502.1	15.1
0	24170	502.1	14.1
0	26350	559.1	70.1
0	26351	559.1	69.1
0	26352	559.1	68.1
0	26353	559.1	67.1
0	26354	559.1	66.1
0	26355	559.1	65.1
0	26356	559.1	64.1
0	26357	559.1	63.1
0	26358	559.1	62.1
0	26359	559.1	61.1
0	26360	559.1	60.1
0	26361	559.1	59.1
0	26362	559.1	58.1
0	26363	559.1	57.1
0	26364	559.1	56.1
0	26365	559.1	55.1
0	26366	559.1	54.1
0	26367	559.1	53.1
0	26368	559.1	52.1
0	26369	559.1	51.1
0	26370	559.1	50.1
0	26371	559.1	49.1
0	26372	559.1	48.1
0	26373	559.1	47.1
0	26374	559.1	46.1
0	26375	559.1	45.1
0	26376	559.1	44.1
0	26377	559.1	43.1
0	26378	559.1	42.1
0	26379	559.1	41.1
0	26380	559.1	40.1
0	26381	559.1	39.1
0	26382	559.1	38.1
0	26383	559.1	37.1
0	26384	559.1	36.1
0	26385	559.1	35.1
0	26386	559.1	34.1
0	26387	559.1	33.1
0	26388	559.1	32.1
0	26389	559.1	31.1
0	26390	559.1	30.1
0	26391	559.1	29.1
0	26392	559.1	28.1
0	26393	559.1	27.1
0	26394	559.1	26.1
0	26395	559.1	25.1
0	26396	559.1	24.1
0	26397	559.1	23.1
0	26398	559.1	22.1
0	26399	559.1	21.1
0	26400	559.1	20.1
0	26401	559.1	19.1
0	26402	559.1	18.1
0	26403	559.1	17.1
0	26404	559.1	16.1
0	26405	559.1	15.1
0	26406	559.1	14.1
0	26407	559.1	13.1
0	26408	559.1	12.1
0	26409	559.1	11.1
0	26410	559.1	10.1
0	26411	559.1	9.1
0	26412	559.1	8.1
0	26413	559.1	7.1
0	26414	559.1	6.1
0	26415	559.1	5.1
0	26416	559.1	4.1
0	26417	559.1	3.1
0	26418	559.1	2.1
0	26436	559.3	1.3
0	26467	560.3	1.3
0	26494	561.3	1.3
0	27680	562.3	1.3
0	28235	563.3	1.3
0	28477	564.3	1.3
0	28538	565.3	1.3
0	28599	566.3	1.3
0	28660	567.3	1.3
0	28720	568.3	1.3
0	28780	569.3	1.3
0	28832	570.3	1.3
0	30204	586.3	16.3
0	30205	586.3	15.3
0	30206	586.3	14.3
0	30207	586.3	13.3
0	30208	586.3	12.3
0	30209	586.3	11.3
0	30210	586.3	10.3
0	30211	586.3	9.3
0	30212	586.3	8.3
0	30213	586.3	7.3
0	30214	586.3	6.3
0	30215	586.3	5.3
0	30216	586.3	4.3
0	30217	586.3	3.3
0	30218	586.3	2.3
0	30219	586.3	1.3
0	30369	587.3	1.3
0	30411	588.3	1.3
0	30464	589.3	1.3
0	30505	590.3	1.3
0	30548	591.3	1.3
0	30589	592.3	1.3
0	30631	593.3	1.3
0	30669	594.3	1.3
0	30704	595.3	1.3
0	30739	596.3	1.3
0	31465	625.1	29.1
0	31466	625.1	28.1
0	31467	625.1	27.1
0	31468	625.1	26.1
0	31469	625.1	25.1
0	31470	625.1	24.1
0	31471	625.1	23.1
0	31472	625.1	22.1
0	31473	625.1	21.1
0	31474	625.1	20.1
0	31475	625.1	19.1
0	31476	625.1	18.1
0	31477	625.1	17.1
0	31478	625.1	16.1
0	31479	625.1	15.1
0	31480	625.1	14.1
0	31481	625.1	13.1
0	31482	625.1	12.1
0	31483	625.1	11.1
0	31484	625.1	10.1
0	32207	639.3	23.3
0	32208	639.3	22.3
0	32209	639.3	21.3
0	32210	639.3	20.3
0	32211	639.3	19.3
0	32212	639.3	18.3
0	32213	639.3	17.3
0	32214	639.3	16.3
0	32215	639.3	15.3
0	32216	639.3	14.3
0	32217	639.3	13.3
0	32218	639.3	12.3
0	32219	639.3	11.3
0	32220	639.3	10.3
0	32221	639.3	9.3
0	32222	639.3	8.3
0	32223	639.3	7.3
0	32224	639.3	6.3
0	32225	639.3	5.3
0	32226	639.3	4.3
0	32227	639.3	3.3
0	32228	639.3	2.3
0	32229	639.3	1.3
0	32256	640.3	1.3
0	32283	641.3	1.3
0	32313	642.3	1.3
0	32340	643.3	1.3
0	32626	644.3	1.3
0	32660	645.3	1.3
0	32885	647.4	1.4
0	32950	648.4	1.4
0	33003	649.4	1.4
0	33091	651.3	1.3
0	33128	652.3	1.3
0	33165	653.3	1.3
0	33334	654.3	1.3
0	33373	655.3	1.3
0	33414	656.3	1.3
0	33706	658.4	1.4
0	33831	659.4	1.4
0	33901	661.3	2.3
0	33902	661.3	1.3
0	33928	662.3	1.3
0	33955	663.3	1.3
0	33981	664.3	1.3
0	34066	666.3	1.3
0	34146	667.3	1.3
0	34203	668.3	1.3
0	35615	717.1	49.1
0	35616	717.1	48.1
0	35617	717.1	47.1
0	35618	717.1	46.1
0	35619	717.1	45.1
0	35620	717.1	44.1
0	35621	717.1	43.1
0	35622	717.1	42.1
0	35623	717.1	41.1
0	35624	717.1	40.1
0	35625	717.1	39.1
0	35626	717.1	38.1
0	35627	717.1	37.1
0	35628	717.1	36.1
0	35629	717.1	35.1
0	35630	717.1	34.1
0	35631	717.1	33.1
0	35632	717.1	32.1
0	35633	717.1	31.1
0	35634	717.1	30.1
0	35635	717.1	29.1
0	35636	717.1	28.1
0	35637	717.1	27.1
0	35638	717.1	26.1
0	35639	717.1	25.1
0	35640	717.1	24.1
0	35641	717.1	23.1
0	35642	717.1	22.1
0	35643	717.1	21.1
0	35644	717.1	20.1
0	37561	746.1	48.1
0	37562	746.1	47.1
0	37563	746.1	46.1
0	37564	746.1	45.1
0	37565	746.1	44.1
0	37566	746.1	43.1
0	37567	746.1	42.1
0	37568	746.1	41.1
0	37569	746.1	40.1
0	37570	746.1	39.1
0	37571	746.1	38.1
0	37572	746.1	37.1
0	37573	746.1	36.1
0	37574	746.1	35.1
0	37575	746.1	34.1
0	37576	746.1	33.1
0	37577	746.1	32.1
0	37578	746.1	31.1
0	37579	746.1	30.1
0	37580	746.1	29.1
0	37581	746.1	28.1
0	37582	746.1	27.1
0	37583	746.1	26.1
0	37584	746.1	25.1
0	37585	746.1	24.1
0	37586	746.1	23.1
0	37587	746.1	22.1
0	37588	746.1	21.1
0	37589	746.1	20.1
0	37590	746.1	19.1
0	37591	746.1	18.1
0	37592	746.1	17.1
0	37593	746.1	16.1
0	37594	746.1	15.1
0	37595	746.1	14.1
0	37596	746.1	13.1
0	37597	746.1	12.1
0	37598	746.1	11.1
0	37599	746.1	10.1
0	37600	746.1	9.1
0	37601	746.1	8.1
0	37602	746.1	7.1
0	37603	746.1	6.1
0	37604	746.1	5.1
0	37605	746.1	4.1
0	37606	746.1	3.1
0	38242	758.3	14.3
0	38243	758.3	13.3
0	38244	758.3	12.3
0	38245	758.3	11.3
0	38246	758.3	10.3
0	38247	758.3	9.3
0	38248	758.3	8.3
0	38249	758.3	7.3
0	38250	758.3	6.3
0	38251	758.3	5.3
0	38252	758.3	4.3
0	38253	758.3	3.3
0	38254	758.3	2.3
0	38255	758.3	1.3
0	38358	759.3	1.3
0	39985	787.1	27.1
0	39986	787.1	26.1
0	39987	787.1	25.1
0	39988	787.1	24.1
0	39989	787.1	23.1
0	40411	789.2	24.2
0	40412	789.2	23.2
0	40413	789.2	22.2
0	40414	789.2	21.2
0	40415	789.2	20.2
0	40416	789.2	19.2
0	40417	789.2	18.2
0	40418	789.2	17.2
0	40419	789.2	16.2
0	40420	789.2	15.2
0	40421	789.2	14.2
0	40422	789.2	13.2
0	40423	789.2	12.2
0	40424	789.2	11.2
0	40425	789.2	10.2
0	40426	789.2	8.2
0	40427	789.2	7.2
0	40428	789.2	6.2
0	40429	789.2	5.2
0	40430	789.2	4.2
0	40569	789.4	3.4
0	40765	790.4	3.4
0	40951	791.4	3.4
0	41072	792.4	3.4
0	41157	793.4	3.4
0	41244	794.4	3.4
0	41323	795.4	3.4
0	41407	796.4	3.4
0	41457	797.4	3.4
0	41480	798.4	3.4
0	42605	820.1	23.1
0	42606	820.1	22.1
0	42607	820.1	21.1
0	42608	820.1	20.1
0	42609	820.1	19.1
0	42610	820.1	18.1
0	42611	820.1	17.1
0	42612	820.1	16.1
0	42613	820.1	15.1
0	42614	820.1	14.1
0	42615	820.1	13.1
0	42616	820.1	24.1
0	42617	820.1	12.1
0	42618	820.1	11.1
0	42619	820.1	10.1
0	42620	820.1	9.1
0	42621	820.1	8.1
0	42622	820.1	7.1
0	42623	820.1	6.1
0	42624	820.1	5.1
0	42625	820.1	4.1
0	42626	820.1	3.1
0	42627	820.1	2.1
0	43545	853.1	34.1
0	43546	853.1	33.1
0	43547	853.1	32.1
0	43548	853.1	31.1
0	43549	853.1	30.1
0	43550	853.1	29.1
0	43551	853.1	28.1
0	43552	853.1	27.1
0	43553	853.1	26.1
0	43554	853.1	25.1
0	43555	853.1	24.1
0	43556	853.1	23.1
0	43557	853.1	22.1
0	43558	853.1	21.1
0	43559	853.1	20.1
0	43560	853.1	19.1
0	43561	853.1	18.1
0	43562	853.1	17.1
0	43563	853.1	16.1
0	44017	856.3	18.3
0	44018	856.3	17.3
0	44019	856.3	16.3
0	44020	856.3	15.3
0	44021	856.3	14.3
0	44022	856.3	13.3
0	44023	856.3	12.3
0	44024	856.3	11.3
0	44025	856.3	10.3
0	44026	856.3	9.3
0	44027	856.3	8.3
0	44028	856.3	7.3
0	44029	856.3	6.3
0	44030	856.3	5.3
0	44031	856.3	4.3
0	44032	856.3	3.3
0	44033	856.3	2.3
0	44034	856.3	1.3
0	44135	857.3	1.3
0	44188	858.3	1.3
0	44230	859.3	1.3
0	44266	860.3	1.3
0	44294	861.3	1.3
0	44318	862.3	1.3
0	45170	900.1	107.1
0	45464	906.2	44.2
0	45465	906.2	43.2
0	45466	906.2	42.2
0	45467	906.2	41.2
0	45468	906.2	40.2
0	45469	906.2	39.2
0	45470	906.2	38.2
0	45471	906.2	37.2
0	45472	906.2	36.2
0	45473	906.2	35.2
0	45474	906.2	34.2
0	45475	906.2	33.2
0	45476	906.2	32.2
0	45477	906.2	31.2
0	45478	906.2	30.2
0	45479	906.2	29.2
0	47588	946.1	68.1
0	47589	946.1	67.1
0	47590	946.1	66.1
0	47591	946.1	65.1
0	47592	946.1	64.1
0	47593	946.1	63.1
0	47594	946.1	62.1
0	47595	946.1	61.1
0	47596	946.1	60.1
0	47597	946.1	59.1
0	47598	946.1	58.1
0	47599	946.1	57.1
0	47600	946.1	56.1
0	47601	946.1	55.1
0	47602	946.1	54.1
0	47603	946.1	53.1
0	47604	946.1	52.1
0	47605	946.1	51.1
0	47606	946.1	50.1
0	47607	946.1	49.1
0	47608	946.1	48.1
0	47609	946.1	47.1
0	47610	946.1	46.1
0	47611	946.1	45.1
0	47612	946.1	44.1
0	47613	946.1	43.1
0	47614	946.1	42.1
0	47615	946.1	41.1
0	47616	946.1	40.1
0	47617	946.1	39.1
0	47618	946.1	38.1
0	47619	946.1	37.1
0	47620	946.1	36.1
0	47621	946.1	35.1
0	47622	946.1	34.1
0	47623	946.1	33.1
0	47624	946.1	32.1
0	47625	946.1	31.1
0	47626	946.1	30.1
0	47627	946.1	29.1
0	47628	946.1	28.1
0	47629	946.1	27.1
0	47630	946.1	26.1
0	47631	946.1	25.1
0	47632	946.1	24.1
0	47633	946.1	23.1
0	47634	946.1	22.1
0	47635	946.1	21.1
0	47636	946.1	20.1
0	47637	946.1	19.1
0	47638	946.1	18.1
0	47639	946.1	17.1
0	47640	946.1	16.1
0	47641	946.1	15.1
0	47642	946.1	14.1
0	47643	946.1	13.1
0	47644	946.1	12.1
0	47645	946.1	11.1
0	47646	946.1	10.1
0	47647	946.1	9.1
0	47701	947.2	9.2
0	47702	947.2	8.2
0	47703	947.2	7.2
0	47704	947.2	6.2
0	47705	947.2	5.2
0	47706	947.2	4.2
0	47707	947.2	3.2
0	48067	951.3	6.3
0	48068	951.3	5.3
0	48069	951.3	4.3
0	48070	951.3	3.3
0	48071	951.3	2.3
0	48072	951.3	1.3
0	48149	952.3	1.3
0	48330	953.3	1.3
0	48397	954.3	1.3
0	48493	955.3	1.3
0	48545	956.3	1.3
0	48573	957.3	1.3
0	48599	958.3	1.3
0	49659	976.1	17.1
0	50146	990.1	29.1
0	50147	990.1	28.1
0	50148	990.1	27.1
0	50149	990.1	26.1
0	50150	990.1	25.1
0	50151	990.1	24.1
0	50152	990.1	23.1
0	50153	990.1	22.1
0	50154	990.1	21.1
0	50155	990.1	20.1
0	50156	990.1	19.1
0	50157	990.1	18.1
0	50158	990.1	17.1
0	50159	990.1	16.1
0	50160	990.1	15.1
0	50161	990.1	14.1
0	50162	990.1	13.1
0	50163	990.1	12.1
0	50164	990.1	11.1
0	50165	990.1	10.1
0	50166	990.1	9.1
0	50167	990.1	8.1
0	50168	990.1	7.1
0	50169	990.1	6.1
0	50170	990.1	5.1

