version 2
run General-0-20250117-05:21:35-190584
attr configname General
attr datetime 20250117-05:21:35
attr experiment General
attr inifile shaw_false.ini
attr iterationvars ""
attr iterationvarsf ""
attr measurement ""
attr network src.dtnsim
attr processid 190584
attr repetition 0
attr replication #0
attr resultdir results
attr runnumber 0
attr seedset 0
param dtnsim.central.contactsFile "\"contactPlan/Contacts.txt\""
param dtnsim.central.contactsFile_A "\"contactPlan/Contacts.txt\""
param dtnsim.central.contactsFile_B "\"contactPlan/Contacts.txt\""
param dtnsim.central.contactIdsToDelete_from_celestialA "\"6 11 12 13 17 23 28 33 34 37 40 66 69 71 76 83 88 89 92 93 99 100 108 118 122 126 130 132 133 134 135 136 142 145 150 151 161 163 164 167 170 171 173 181 184 185 186 192 193 195 205 211 214 228 234 239 240 250 251 261 268 272 281 287 288 296 302 307 308 316 319 335 340 343 344 346 349 351 362 369 371 379 398 400 429 433 434 435 438 439 442 453 458 464 466 471 472 473 479\""
param dtnsim.central.contactIdsToDelete_from_celestialB "\"2 5 19 29 32 35 38 41 45 60 64 68 74 84 87 95 96 97 101 102 103 104 116 124 137 144 147 149 152 153 158 159 165 166 178 189 198 203 215 222 226 231 232 235 236 237 246 248 254 265 266 270 275 279 280 290 295 298 299 300 303 314 320 323 327 330 332 334 339 342 345 350 355 356 361 365 367 372 374 375 382 383 388 391 392 395 397 410 411 415 421 424 426 437 440 448 454 463 467 470 476\""
param dtnsim.central.celestialA_nodes "\"1 2 3\""
param dtnsim.central.celestialB_nodes "\"4 5 6\""
param dtnsim.central.locallyfaultsAware false
param dtnsim.central.mode_two_celestial true
param dtnsim.nodesNumber 6
param dtnsim.node[1].icon "\"receiverdish\""
param dtnsim.node[2..5].icon "\"satellite\""
param dtnsim.node[6].icon "\"receiverdish\""
param dtnsim.node[*].dtn.routing "\"cgrModel350\""
param dtnsim.node[*].dtn.routingType "\"routeListType:allPaths-firstEnding,volumeAware:allContacts,extensionBlock:on,contactPlan:global\""
param dtnsim.node[1].app.enable true
param dtnsim.node[1].app.bundlesNumber "\"8000\""
param dtnsim.node[1].app.start "\"0\""
param dtnsim.node[1].app.destinationEid "\"6\""
param dtnsim.node[1].app.size "\"1500\""
param dtnsim.node[1].app.interval 10

vector 0 dtnsim.node[6].app appBundleReceivedDelayvec:vector ETV
attr interpolationmode none
attr source appBundleReceivedDelay
attr title "appBundleReceivedDelayvec, vector"
0	22357	70454	2174
0	22363	70454	2164
0	22369	70454	2154
0	22375	70454	2144
0	22381	70454	2134
0	22387	70454	2124
0	22393	70454	2114
0	22399	70454	2104
0	22405	70454	2094
0	22411	70454	2084
0	22417	70454	2074
0	22423	70454	2064
0	22429	70454	2054
0	22435	70454	2044
0	22441	70454	2034
0	22447	70454	2024
0	22453	70454	2014
0	22459	70454	2004
0	22465	70454	1994
0	22471	70454	1984
0	22477	70454	1974
0	22483	70454	1964
0	22489	70454	1954
0	22495	70454	1944
0	22501	70454	1934
0	22507	70454	1924
0	22513	70454	1914
0	22519	70454	1904
0	22525	70454	1894
0	22531	70454	1884
0	22537	70454	1874
0	22543	70454	1864
0	22549	70454	1854
0	22555	70454	1844
0	22561	70454	1834
0	22567	70454	1824
0	22573	70454	1814
0	22579	70454	1804
0	22585	70454	1794
0	22591	70454	1784
0	22597	70454	1774
0	22603	70454	1764
0	22609	70454	1754
0	22615	70454	1744
0	22621	70454	1734
0	22627	70454	1724
0	22633	70454	1714
0	22639	70454	1704
0	22645	70454	1694
0	22651	70454	1684
0	22657	70454	1674
0	22663	70454	1664
0	22669	70454	1654
0	22675	70454	1644
0	22681	70454	1634
0	22687	70454	1624
0	22693	70454	1614
0	22699	70454	1604
0	22705	70454	1594
0	22711	70454	1584
0	22717	70454	1574
0	22723	70454	1564
0	22729	70454	1554
0	22735	70454	1544
0	22741	70454	1534
0	22747	70454	1524
0	22753	70454	1514
0	22759	70454	1504
0	22765	70454	1494
0	22771	70454	1484
0	22777	70454	1474
0	22783	70454	1464
0	22789	70454	1454
0	22795	70454	1444
0	22801	70454	1434
0	22807	70454	1424
0	22813	70454	1414
0	22819	70454	1404
0	22825	70454	1394
0	22831	70454	1384
0	22837	70454	1374
0	22843	70454	1364
0	22849	70454	1354
0	22855	70454	1344
0	22861	70454	1334
0	22867	70454	1324
0	22873	70454	1314
0	22879	70454	1304
0	22885	70454	1294
0	22891	70454	1284
0	22897	70454	1274
0	22903	70454	1264
0	22909	70454	1254
0	22915	70454	1244
0	22921	70454	1234
0	22927	70454	1224
0	22933	70454	1214
0	22939	70454	1204
0	22945	70454	1194
0	22951	70454	1184
0	22957	70454	1174
0	22963	70454	1164
0	22969	70454	1154
0	22975	70454	1144
0	22981	70454	1134
0	22987	70454	1124
0	22993	70454	1114
0	22999	70454	1104
0	23005	70454	1094
0	23011	70454	1084
0	23017	70454	1074
0	23023	70454	1064
0	23029	70454	1054
0	23035	70454	1044
0	23041	70454	1034
0	23047	70454	1024
0	23053	70454	1014
0	23059	70454	1004
0	23065	70454	994
0	23071	70454	984
0	23077	70454	974
0	23083	70454	964
0	23089	70454	954
0	23095	70454	944
0	23101	70454	934
0	23107	70454	924
0	23113	70454	914
0	23119	70454	904
0	23125	70454	894
0	23131	70454	884
0	23137	70454	874
0	23143	70454	864
0	23149	70454	854
0	23155	70454	844
0	23164	70456	836
0	23187	70466	836
0	23210	70476	836
0	23233	70486	836
0	23256	70496	836
0	23279	70506	836
0	23302	70516	836
0	23325	70526	836
0	23348	70536	836
0	23371	70546	836
0	23394	70556	836
0	23417	70566	836
0	23440	70576	836
0	23463	70586	836
0	23486	70596	836
0	23509	70606	836
0	23532	70616	836
0	23557	70626	836
0	23581	70636	836
0	23606	70646	836
0	23629	70656	836
0	23652	70666	836
0	23675	70676	836
0	23698	70686	836
0	23721	70696	836
0	23744	70706	836
0	23767	70716	836
0	23790	70726	836
0	23813	70736	836
0	23836	70746	836
0	23859	70756	836
0	23882	70766	836
0	23905	70776	836
0	23928	70786	836
0	23951	70796	836
0	23974	70806	836
0	23997	70816	836
0	24020	70826	836
0	24043	70836	836
0	24066	70846	836
0	24089	70856	836
0	24113	70866	836
0	24136	70876	836
0	24159	70886	836
0	24182	70896	836
0	24205	70906	836
0	24228	70916	836
0	24251	70926	836
0	24274	70936	836
0	24297	70946	836
0	24320	70956	836
0	24343	70966	836
0	24369	70976	836
0	24393	70986	836
0	24417	70996	836
0	24441	71006	836
0	24465	71016	836
0	24489	71026	836
0	24513	71036	836
0	24537	71046	836
0	24561	71056	836
0	24585	71066	836
0	24611	71076	836
0	24635	71086	836
0	24659	71096	836
0	24683	71106	836
0	24707	71116	836
0	24731	71126	836
0	24755	71136	836
0	24779	71146	836
0	24803	71156	836
0	24827	71166	836
0	24851	71176	836
0	24877	71186	836
0	24901	71196	836
0	24926	71206	836
0	24951	71216	836
0	24978	71226	836
0	25003	71236	836
0	25028	71246	836
0	25053	71256	836
0	25078	71266	836
0	25103	71276	836
0	25130	71286	836
0	25156	71296	836
0	25182	71306	836
0	25208	71316	836
0	25234	71326	836
0	25260	71336	836
0	25286	71346	836
0	25312	71356	836
0	25338	71366	836
0	25364	71376	836
0	25390	71386	836
0	25416	71396	836
0	25442	71406	836
0	25468	71416	836
0	25494	71426	836
0	25522	71436	836
0	25549	71446	836
0	25576	71456	836
0	25603	71466	836
0	25630	71476	836
0	25657	71486	836
0	25684	71496	836
0	25711	71506	836
0	25738	71516	836
0	25765	71526	836
0	25792	71536	836
0	25819	71546	836
0	25846	71556	836
0	25873	71566	836
0	25900	71576	836
0	25927	71586	836
0	25954	71596	836
0	25981	71606	836
0	26008	71616	836
0	26035	71626	836
0	26062	71636	836
0	26092	71646	836
0	26119	71656	836
0	26146	71666	836
0	26173	71676	836
0	26200	71686	836
0	26227	71696	836
0	26254	71706	836
0	26281	71716	836
0	26308	71726	836
0	26335	71736	836
0	26362	71746	836
0	26389	71756	836
0	26416	71766	836
0	26443	71776	836
0	26470	71786	836
0	26497	71796	836
0	26524	71806	836
0	26551	71816	836
0	26578	71826	836
0	26605	71836	836
0	26632	71846	836
0	26659	71856	836
0	26686	71866	836
0	26710	71876	836
0	26734	71886	836
0	26758	71896	836
0	26782	71906	836
0	26806	71916	836
0	26830	71926	836
0	26854	71936	836
0	26878	71946	836
0	26902	71956	836
0	26926	71966	836
0	26950	71976	836
0	26974	71986	836
0	26998	71996	836
0	27022	72006	836
0	27048	72016	836
0	27072	72026	836
0	27100	72036	836
0	27126	72046	836
0	27152	72056	836
0	27178	72066	836
0	27204	72076	836
0	27230	72086	836
0	27258	72096	836
0	27284	72106	836
0	27310	72116	836
0	27336	72126	836
0	27369	72136	836
0	27396	72146	836
0	27427	72156	836
0	27455	72166	836
0	27484	72176	836
0	27512	72186	836
0	27539	72196	836
0	27566	72206	836
0	27593	72216	836
0	27620	72226	836
0	27647	72236	836
0	27674	72246	836
0	27701	72256	836
0	27728	72266	836
0	27755	72276	836
0	27784	72286	836
0	27811	72296	836
0	27838	72306	836
0	27865	72316	836
0	27894	72326	836
0	27922	72336	836
0	27950	72346	836
0	27978	72356	836
0	28006	72366	836
0	28034	72376	836
0	28062	72386	836
0	28090	72396	836
0	28118	72406	836
0	28146	72416	836
0	28179	72426	836
0	28208	72436	836
0	28237	72446	836
0	28266	72456	836
0	28295	72466	836
0	28326	72476	836
0	28356	72486	836
0	28386	72496	836
0	28416	72506	836
0	28446	72516	836
0	28476	72526	836
0	28508	72536	836
0	28539	72546	836
0	28570	72556	836
0	28601	72566	836
0	28632	72576	836
0	28663	72586	836
0	28694	72596	836
0	28725	72606	836
0	28756	72616	836
0	28787	72626	836
0	28818	72636	836
0	28849	72646	836
0	28880	72656	836
0	28911	72666	836
0	28942	72676	836
0	28973	72686	836
0	29004	72696	836
0	31058	73546	1676
0	31074	73546	1666
0	31080	73546	1656
0	31086	73546	1646
0	31092	73546	1636
0	31098	73546	1626
0	31104	73546	1616
0	31110	73546	1606
0	31116	73546	1596
0	31122	73546	1586
0	31128	73546	1576
0	31134	73546	1566
0	31140	73546	1556
0	31146	73546	1546
0	31152	73546	1536
0	31158	73546	1526
0	31164	73546	1516
0	31170	73546	1506
0	31176	73546	1496
0	31182	73546	1486
0	31188	73546	1476
0	31194	73546	1466
0	31200	73546	1456
0	31206	73546	1446
0	31212	73546	1436
0	31218	73546	1426
0	31224	73546	1416
0	31230	73546	1406
0	31236	73546	1396
0	31242	73546	1386
0	31248	73546	1376
0	31254	73546	836
0	31287	73556	836
0	31332	73566	836
0	31376	73576	836
0	31420	73586	836
0	31464	73596	836
0	31508	73606	836
0	31552	73616	836
0	31596	73626	836
0	31640	73636	836
0	31684	73646	836
0	31728	73656	836
0	31772	73666	836
0	31819	73676	836
0	31867	73686	836
0	31914	73696	836
0	31959	73706	836
0	32004	73716	836
0	32049	73726	836
0	32094	73736	836
0	32139	73746	836
0	32184	73756	836
0	32229	73766	836
0	32274	73776	836
0	32321	73786	836
0	32368	73796	836
0	32413	73806	836
0	32458	73816	836
0	32503	73826	836
0	32548	73836	836
0	32593	73846	836
0	32638	73856	836
0	32683	73866	836
0	32728	73876	836
0	32773	73886	836
0	32818	73896	836
0	32863	73906	836
0	32908	73916	836
0	32954	73926	836
0	32998	73936	836
0	33042	73946	836
0	33086	73956	836
0	33132	73966	836
0	33177	73976	836
0	33224	73986	836
0	33269	73996	836
0	33314	74006	836
0	33359	74016	836
0	33404	74026	836
0	33451	74036	836
0	33496	74046	836
0	33541	74056	836
0	33588	74066	836
0	33633	74076	836
0	33682	74086	836
0	33728	74096	836
0	33774	74106	836
0	33822	74116	836
0	33869	74126	836
0	33916	74136	836
0	33963	74146	836
0	34012	74156	836
0	34059	74166	836
0	34107	74176	836
0	34156	74186	836
0	34203	74196	836
0	34250	74206	836
0	34297	74216	836
0	34344	74226	836
0	34393	74236	836
0	34440	74246	836
0	34488	74256	836
0	34536	74266	836
0	34587	74276	836
0	34636	74286	836
0	34685	74296	836

