version 2
run General-0-20250117-04:10:18-182139
attr configname General
attr datetime 20250117-04:10:18
attr experiment General
attr inifile shaw.ini
attr iterationvars ""
attr iterationvarsf ""
attr measurement ""
attr network src.dtnsim
attr processid 182139
attr repetition 0
attr replication #0
attr resultdir results
attr runnumber 0
attr seedset 0
param dtnsim.central.contactsFile "\"contactPlan/Contacts.txt\""
param dtnsim.central.contactsFile_A "\"contactPlan/Contacts_A.txt\""
param dtnsim.central.contactsFile_B "\"contactPlan/Contacts_B.txt\""
param dtnsim.central.contactIdsToDelete_from_celestialA "\"1 39 59 65 83 90 92 94 96 141 144 151 176 186 190 194 196 206 214 215 220 234 248 256 257 271 280 288 295 312 320 326 329 336 370 397 399 408 411 430 435 446 449 450 454 460 464 474 477\""
param dtnsim.central.contactIdsToDelete_from_celestialB "\"2 8 12 35 38 41 45 66 79 102 108 118 137 139 149 164 178 182 183 184 185 193 211 231 236 266 268 269 275 276 284 313 316 338 348 357 365 374 393 396 400 401 403 414 416 433 434 438 443 465 470\""
param dtnsim.central.celestialA_nodes "\"1 2 3\""
param dtnsim.central.celestialB_nodes "\"4 5 6\""
param dtnsim.central.locallyfaultsAware true
param dtnsim.central.mode_two_celestial true
param dtnsim.nodesNumber 6
param dtnsim.node[1].icon "\"receiverdish\""
param dtnsim.node[2..5].icon "\"satellite\""
param dtnsim.node[6].icon "\"receiverdish\""
param dtnsim.node[*].dtn.routing "\"cgrModel350\""
param dtnsim.node[*].dtn.routingType "\"routeListType:allPaths-firstEnding,volumeAware:allContacts,extensionBlock:on,contactPlan:global\""
param dtnsim.node[1].app.enable true
param dtnsim.node[1].app.bundlesNumber "\"8000\""
param dtnsim.node[1].app.start "\"0\""
param dtnsim.node[1].app.destinationEid "\"6\""
param dtnsim.node[1].app.size "\"1500\""
param dtnsim.node[1].app.interval 10

vector 0 dtnsim.node[6].app appBundleReceivedDelayvec:vector ETV
attr interpolationmode none
attr source appBundleReceivedDelay
attr title "appBundleReceivedDelayvec, vector"
0	39571	44310	44310
0	39577	44310	44300
0	39583	44310	44290
0	39589	44310	44280
0	39595	44310	44270
0	39601	44310	44260
0	39607	44310	44250
0	39613	44310	44240
0	39619	44310	44230
0	39625	44310	44220
0	39631	44310	44210
0	39637	44310	44200
0	39643	44310	44190
0	39649	44310	44180
0	39655	44310	44170
0	39661	44310	44160
0	39667	44310	44150
0	39673	44310	44140
0	39679	44310	44130
0	39685	44310	44120
0	39691	44310	44110
0	39697	44310	44100
0	39703	44310	44090
0	39709	44310	44080
0	39715	44310	44070
0	39721	44310	44060
0	39727	44310	44050
0	39733	44310	44040
0	39739	44310	44030
0	39745	44310	44020
0	39751	44310	44010
0	39757	44310	44000
0	39763	44310	43990
0	39769	44310	43980
0	39775	44310	43970
0	39781	44310	43960
0	39787	44310	43950
0	39793	44310	43940
0	39799	44310	43930
0	39805	44310	43920
0	39811	44310	43910
0	39817	44310	43900
0	39823	44310	43890
0	39829	44310	43880
0	39835	44310	43870
0	39841	44310	43860
0	39847	44310	43850
0	39853	44310	43840
0	39859	44310	43830
0	39865	44310	43820
0	39871	44310	43810
0	39877	44310	43800
0	39883	44310	43790
0	39889	44310	43780
0	39895	44310	43770
0	39901	44310	43760
0	39907	44310	43750
0	39913	44310	43740
0	39919	44310	43730
0	39925	44310	43720
0	39931	44310	43710
0	39937	44310	43700
0	39943	44310	43690
0	39949	44310	43680
0	39955	44310	43670
0	39961	44310	43660
0	39967	44310	43650
0	39973	44310	43640
0	39979	44310	43630
0	39985	44310	43620
0	39991	44310	43610
0	39997	44310	43600
0	40003	44310	43590
0	40009	44310	43580
0	40015	44310	43570
0	40021	44310	43560
0	40027	44310	43550
0	40033	44310	43540
0	40039	44310	43530
0	40045	44310	43520
0	40051	44310	43510
0	40057	44310	43500
0	40063	44310	43490
0	40069	44310	43480
0	40075	44310	43470
0	40081	44310	43460
0	40087	44310	43450
0	40093	44310	43440
0	40099	44310	43430
0	40105	44310	43420
0	40111	44310	43410
0	40117	44310	43400
0	40123	44310	43390
0	40129	44310	43380
0	40135	44310	43370
0	40141	44310	43360
0	40147	44310	43350
0	40153	44310	43340
0	40159	44310	43330
0	40165	44310	43320
0	40171	44310	43310
0	40177	44310	43300
0	40183	44310	43290
0	40189	44310	43280
0	40195	44310	43270
0	40201	44310	43260
0	40207	44310	43250
0	40213	44310	43240
0	40219	44310	43230
0	40225	44310	43220
0	40231	44310	43210
0	40237	44310	43200
0	40243	44310	43190
0	40249	44310	43180
0	40255	44310	43170
0	40261	44310	43160
0	40267	44310	43150
0	40273	44310	43140
0	40279	44310	43130
0	40285	44310	43120
0	40291	44310	43110
0	40297	44310	43100
0	40303	44310	43090
0	40309	44310	43080
0	40315	44310	43070
0	40321	44310	43060
0	40327	44310	43050
0	40333	44310	43040
0	40339	44310	43030
0	40345	44310	43020
0	40351	44310	43010
0	40357	44310	43000
0	40363	44310	42990
0	40369	44310	42980
0	40375	44310	42970
0	40381	44310	42960
0	40387	44310	42950
0	40393	44310	42940
0	40399	44310	42930
0	40405	44310	42920
0	40411	44310	42910
0	40417	44310	42900
0	40423	44310	42890
0	40429	44310	42880
0	40435	44310	42870
0	40441	44310	42860
0	40447	44310	42850
0	40453	44310	42840
0	40459	44310	42830
0	40465	44310	42820
0	40471	44310	42810
0	40477	44310	42800
0	40483	44310	42790
0	40489	44310	42780
0	40495	44310	42770
0	40501	44310	42760
0	40507	44310	42750
0	40513	44310	42740
0	40519	44310	42730
0	40525	44310	42720
0	40531	44310	42710
0	40537	44310	42700
0	40543	44310	42690
0	40549	44310	42680
0	40555	44310	42670
0	40561	44310	42660
0	40567	44310	42650
0	40573	44310	42640
0	40579	44310	42630
0	40585	44310	42620
0	40591	44310	42610
0	40597	44310	42600
0	40603	44310	42590
0	40609	44310	42580
0	40615	44310	42570
0	40621	44310	42560
0	40627	44310	42550
0	40633	44310	42540
0	40639	44310	42530
0	40645	44310	42520
0	40651	44310	42510
0	40657	44310	42500
0	40663	44310	42490
0	40669	44310	42480
0	40675	44310	42470
0	40681	44310	42460
0	40687	44310	42450
0	40693	44310	42440
0	40699	44310	42430
0	40705	44310	42420
0	40711	44310	42410
0	40717	44310	42400
0	40723	44310	42390
0	40729	44310	42380
0	40735	44310	42370
0	40741	44310	42360
0	40747	44310	42350
0	40753	44310	42340
0	40759	44310	42330
0	40765	44310	42320
0	40771	44310	42310
0	40777	44310	42300
0	40783	44310	42290
0	40789	44310	42280
0	40795	44310	42270
0	40801	44310	42260
0	40807	44310	42250
0	40813	44310	42240
0	40819	44310	42230
0	40825	44310	42220
0	40831	44310	42210
0	40837	44310	42200
0	40843	44310	42190
0	40849	44310	42180
0	40855	44310	42170
0	40861	44310	42160
0	40867	44310	42150
0	40873	44310	42140
0	40879	44310	42130
0	40885	44310	42120
0	40891	44310	42110
0	40897	44310	42100
0	40903	44310	42090
0	40909	44310	42080
0	40915	44310	42070
0	40921	44310	42060
0	40927	44310	42050
0	40933	44310	42040
0	40939	44310	42030
0	40945	44310	42020
0	40951	44310	42010
0	40957	44310	42000
0	40963	44310	41990
0	40969	44310	41980
0	40975	44310	41970
0	40981	44310	41960
0	40987	44310	41950
0	40993	44310	41940
0	40999	44310	41930
0	41005	44310	41920
0	41011	44310	41910
0	41017	44310	41900
0	41023	44310	41890
0	41029	44310	41880
0	41035	44310	41870
0	41041	44310	41860
0	41047	44310	41850
0	41053	44310	41840
0	41059	44310	41830
0	41065	44310	41820
0	41071	44310	41810
0	41077	44310	41800
0	41083	44310	41790
0	41089	44310	41780
0	41095	44310	41770
0	41101	44310	41760
0	41107	44310	41750
0	41113	44310	41740
0	41119	44310	41730
0	41125	44310	41720
0	41131	44310	41710
0	41137	44310	41700
0	41143	44310	41690
0	41149	44310	41680
0	41155	44310	41670
0	41161	44310	41660
0	41167	44310	41650
0	41173	44310	41640
0	41179	44310	41630
0	41185	44310	41620
0	41191	44310	41610
0	41197	44310	41600
0	41203	44310	41590
0	41209	44310	41580
0	41215	44310	41570
0	41221	44310	41560
0	41227	44310	41550
0	41233	44310	41540
0	41239	44310	41530
0	41245	44310	41520
0	41251	44310	41510
0	41257	44310	41500
0	41263	44310	41490
0	41269	44310	41480
0	41275	44310	41470
0	41281	44310	41460
0	41287	44310	41450
0	41293	44310	41440
0	41299	44310	41430
0	41305	44310	41420
0	41311	44310	41410
0	41317	44310	41400
0	41323	44310	41390
0	41329	44310	41380
0	41335	44310	41370
0	41341	44310	41360
0	41347	44310	41350
0	41353	44310	41340
0	41359	44310	41330
0	41365	44310	41320
0	41371	44310	41310
0	41377	44310	41300
0	41383	44310	41290
0	41389	44310	41280
0	41395	44310	41270
0	41401	44310	41260
0	41407	44310	41250
0	41413	44310	41240
0	41419	44310	41230
0	41425	44310	41220
0	41431	44310	41210
0	41437	44310	41200
0	41443	44310	41190
0	41449	44310	41180
0	41455	44310	41170
0	41461	44310	41160
0	41467	44310	41150
0	41473	44310	41140
0	41479	44310	41130
0	41485	44310	41120
0	41491	44310	41110
0	41497	44310	41100
0	41503	44310	41090
0	41509	44310	41080
0	41515	44310	41070
0	41521	44310	41060
0	41527	44310	41050
0	41533	44310	41040
0	41539	44310	41030
0	41545	44310	41020
0	41551	44310	41010
0	41557	44310	41000
0	41563	44310	40990
0	41569	44310	40980
0	41575	44310	40970
0	41581	44310	40960
0	41587	44310	40950
0	41593	44310	40940
0	41599	44310	40930
0	41605	44310	40920
0	41611	44310	40910
0	41617	44310	40900
0	41623	44310	40890
0	41629	44310	40880
0	41635	44310	40870
0	41641	44310	40860
0	41647	44310	40850
0	41653	44310	40840
0	41659	44310	40830
0	41665	44310	40820
0	41671	44310	40810
0	41677	44310	40800
0	41683	44310	40790
0	41689	44310	40780
0	41695	44310	40770
0	41701	44310	40760
0	41707	44310	40750
0	41713	44310	40740
0	41719	44310	40730
0	41725	44310	40720
0	41731	44310	40710
0	41737	44310	40700
0	41743	44310	40690
0	41749	44310	40680
0	41755	44310	40670
0	41761	44310	40660
0	41767	44310	40650
0	41773	44310	40640
0	41779	44310	40630
0	41785	44310	40620
0	41791	44310	40610
0	41797	44310	40600
0	41803	44310	40590
0	41809	44310	40580
0	41815	44310	40570
0	41821	44310	40560
0	41827	44310	40550
0	41833	44310	40540
0	41839	44310	40530
0	41845	44310	40520
0	41851	44310	40510
0	41857	44310	40500
0	41863	44310	40490
0	41869	44310	40480
0	41875	44310	40470
0	41881	44310	40460
0	41887	44310	40450
0	41893	44310	40440
0	41899	44310	40430
0	41905	44310	40420
0	41911	44310	40410
0	41917	44310	40400
0	41923	44310	40390
0	41929	44310	40380
0	41935	44310	40370
0	41941	44310	40360
0	41947	44310	40350
0	41953	44310	40340
0	41959	44310	40330
0	41965	44310	40320
0	41971	44310	40310
0	41977	44310	40300
0	41983	44310	40290
0	41989	44310	40280
0	41995	44310	40270
0	42001	44310	40260
0	42007	44310	40250
0	42013	44310	40240
0	42019	44310	40230
0	42025	44310	40220
0	42031	44310	40210
0	42037	44310	40200
0	42043	44310	40190
0	42049	44310	40180
0	42055	44310	40170
0	42061	44310	40160
0	42067	44310	40150
0	42073	44310	40140
0	42079	44310	40130
0	42085	44310	40120
0	42091	44310	40110
0	42097	44310	40100
0	42103	44310	40090
0	42109	44310	40080
0	42115	44310	40070
0	42121	44310	40060
0	42127	44310	40050
0	42133	44310	40040
0	42139	44310	40030
0	42145	44310	40020
0	42151	44310	40010
0	42157	44310	40000
0	42163	44310	39990
0	42169	44310	39980
0	42175	44310	39970
0	42181	44310	39960
0	42187	44310	39950
0	42193	44310	39940
0	42199	44310	39930
0	42205	44310	39920
0	42211	44310	39910
0	42217	44310	39900
0	42223	44310	39890
0	42229	44310	39880
0	42235	44310	39870
0	42241	44310	39860
0	42247	44310	39850
0	42253	44310	39840
0	42259	44310	39830
0	42265	44310	39820
0	42271	44310	39810
0	42277	44310	39800
0	42283	44310	39790
0	42289	44310	39780
0	42295	44310	39770
0	42301	44310	39760
0	42307	44310	39750
0	42313	44310	39740
0	42319	44310	39730
0	42325	44310	39720
0	42331	44310	39710
0	42337	44310	39700
0	42343	44310	39690
0	42349	44310	39680
0	42355	44310	39670
0	42361	44310	39660
0	42367	44310	39650
0	42373	44310	39640
0	42379	44310	39630
0	42385	44310	39620
0	42391	44310	39610
0	42397	44310	39600
0	42403	44310	39590
0	42409	44310	39580
0	42415	44310	39570
0	42421	44310	39560
0	42427	44310	39550
0	42433	44310	39540
0	42439	44310	39530
0	42445	44310	39520
0	42451	44310	39510
0	42457	44310	39500
0	42463	44310	39490
0	42469	44310	39480
0	42475	44310	39470
0	42481	44310	39460
0	42487	44310	39450
0	42493	44310	39440
0	42499	44310	39430
0	42505	44310	39420
0	42511	44310	39410
0	42517	44310	39400
0	42523	44310	39390
0	42529	44310	39380
0	42535	44310	39370
0	42541	44310	39360
0	42547	44310	39350
0	42553	44310	39340
0	42559	44310	39330
0	42565	44310	39320
0	42571	44310	39310
0	42577	44310	39300
0	42583	44310	39290
0	42589	44310	39280
0	42595	44310	39270
0	42601	44310	39260
0	42607	44310	39250
0	42613	44310	39240
0	42619	44310	39230
0	42625	44310	39220
0	42631	44310	39210
0	42637	44310	39200
0	42643	44310	39190
0	42649	44310	39180
0	42655	44310	39170
0	42661	44310	39160
0	42667	44310	39150
0	42673	44310	39140
0	42679	44310	39130
0	42685	44310	39120
0	42691	44310	39110
0	42697	44310	39100
0	42703	44310	39090
0	42709	44310	39080
0	42715	44310	39070
0	42721	44310	39060
0	42727	44310	39050
0	42733	44310	39040
0	42739	44310	39030
0	42745	44310	39020
0	42751	44310	39010
0	42757	44310	39000
0	42763	44310	38990
0	42769	44310	38980
0	42775	44310	38970
0	42781	44310	38960
0	42787	44310	38950
0	42793	44310	38940
0	42799	44310	38930
0	42805	44310	38920
0	42811	44310	38910
0	42817	44310	38900
0	42823	44310	38890
0	42829	44310	38880
0	42835	44310	38870
0	42841	44310	38860
0	42847	44310	38850
0	42853	44310	38840
0	42859	44310	38830
0	42865	44310	38820
0	42871	44310	38810
0	42877	44310	38800
0	42883	44310	38790
0	42889	44310	38780
0	42895	44310	38770
0	42901	44310	38760
0	42907	44310	38750
0	42913	44310	38740
0	42919	44310	38730
0	42925	44310	38720
0	42931	44310	38710
0	42937	44310	38700
0	42943	44310	38690
0	42949	44310	38680
0	42955	44310	38670
0	42961	44310	38660
0	42967	44310	38650
0	42973	44310	38640
0	42979	44310	38630
0	42985	44310	38620
0	42991	44310	38610
0	42997	44310	38600
0	43003	44310	38590
0	43009	44310	38580
0	43015	44310	38570
0	43021	44310	38560
0	43027	44310	38550
0	43033	44310	38540
0	43039	44310	38530
0	43045	44310	38520
0	43051	44310	38510
0	43057	44310	38500
0	43063	44310	38490
0	43069	44310	38480
0	43075	44310	38470
0	43081	44310	38460
0	43087	44310	38450
0	43093	44310	38440
0	43099	44310	38430
0	43105	44310	38420
0	43111	44310	38410
0	43117	44310	38400
0	43123	44310	38390
0	43129	44310	38380
0	43135	44310	38370
0	43141	44310	38360
0	43147	44310	38350
0	43153	44310	38340
0	43159	44310	38330
0	43165	44310	38320
0	43171	44310	38310
0	43177	44310	38300
0	43183	44310	38290
0	43189	44310	38280
0	43195	44310	38270
0	43201	44310	38260
0	43207	44310	38250
0	43213	44310	38240
0	43219	44310	38230
0	43225	44310	38220
0	43231	44310	38210
0	43237	44310	38200
0	43243	44310	38190
0	43249	44310	38180
0	43255	44310	38170
0	43261	44310	38160
0	43267	44310	38150
0	43273	44310	38140
0	43279	44310	38130
0	43285	44310	38120
0	43291	44310	38110
0	43297	44310	38100
0	43303	44310	38090
0	43309	44310	38080
0	43315	44310	38070
0	43321	44310	38060
0	43327	44310	38050
0	43333	44310	38040
0	43339	44310	38030
0	43345	44310	38020
0	43351	44310	38010
0	43357	44310	38000
0	43363	44310	37990
0	43369	44310	37980
0	43375	44310	37970
0	43381	44310	37960
0	43387	44310	37950
0	43393	44310	37940
0	43399	44310	37930
0	43405	44310	37920
0	43411	44310	37910
0	43417	44310	37900
0	43423	44310	37890
0	43429	44310	37880
0	43435	44310	37870
0	43441	44310	37860
0	43447	44310	37850
0	43453	44310	37840
0	43459	44310	37830
0	43465	44310	37820
0	43471	44310	37810
0	43477	44310	37800
0	43483	44310	37790
0	43489	44310	37780
0	43495	44310	37770
0	43501	44310	37760
0	43507	44310	37750
0	43513	44310	37740
0	43519	44310	37730
0	43525	44310	37720
0	43531	44310	37710
0	43537	44310	37700
0	43543	44310	37690
0	43549	44310	37680
0	43555	44310	37670
0	43561	44310	37660
0	43567	44310	37650
0	43573	44310	37640
0	43579	44310	37630
0	43585	44310	37620
0	43591	44310	37610
0	43597	44310	37600
0	43603	44310	37590
0	43609	44310	37580
0	43615	44310	37570
0	43621	44310	37560
0	43627	44310	37550
0	43633	44310	37540
0	43639	44310	37530
0	43645	44310	37520
0	43651	44310	37510
0	43657	44310	37500
0	43663	44310	37490
0	43669	44310	37480
0	43675	44310	37470
0	43681	44310	37460
0	43687	44310	37450
0	43693	44310	37440
0	43699	44310	37430
0	43705	44310	37420
0	43711	44310	37410
0	43717	44310	37400
0	43723	44310	37390
0	43729	44310	37380
0	43735	44310	37370
0	43741	44310	37360
0	43747	44310	37350
0	43753	44310	37340
0	43759	44310	37330
0	43765	44310	37320
0	43771	44310	37310
0	43777	44310	37300
0	43783	44310	37290
0	43789	44310	37280
0	43795	44310	37270
0	43801	44310	37260
0	43807	44310	37250
0	43813	44310	37240
0	43819	44310	37230
0	43825	44310	37220
0	43831	44310	37210
0	43837	44310	37200
0	43843	44310	37190
0	43849	44310	37180
0	43855	44310	37170
0	43861	44310	37160
0	43867	44310	37150
0	43873	44310	37140
0	43879	44310	37130
0	43885	44310	37120
0	43891	44310	37110
0	43897	44310	37100
0	43903	44310	37090
0	43909	44310	37080
0	43915	44310	37070
0	43921	44310	37060
0	43927	44310	37050
0	43933	44310	37040
0	43939	44310	37030
0	43945	44310	37020
0	43951	44310	37010
0	43957	44310	37000
0	43963	44310	36990
0	43969	44310	36980
0	43975	44310	36970
0	43981	44310	36960
0	43987	44310	36950
0	43993	44310	36940
0	43999	44310	36930
0	44005	44310	36920
0	44011	44310	36910
0	44017	44310	36900
0	44023	44310	36890
0	44029	44310	36880
0	44035	44310	36870
0	44041	44310	36860
0	44047	44310	36850
0	44053	44310	36840
0	44059	44310	36830
0	44065	44310	36820
0	44071	44310	36810
0	44077	44310	36800
0	44083	44310	36790
0	44089	44310	36780
0	44095	44310	36770
0	44101	44310	36760
0	44107	44310	36750
0	44113	44310	36740
0	44119	44310	36730
0	44125	44310	36720
0	44131	44310	36710
0	44137	44310	36700
0	44143	44310	36690
0	44149	44310	36680
0	44155	44310	36670
0	44161	44310	36660
0	44167	44310	36650
0	44173	44310	36640
0	44179	44310	36630
0	44185	44310	36620
0	44191	44310	36610
0	44197	44310	36600
0	44203	44310	36590
0	44209	44310	36580
0	44215	44310	36570
0	44221	44310	36560
0	44227	44310	36550
0	44233	44310	36540
0	44239	44310	36530
0	44245	44310	36520
0	44251	44310	36510
0	44257	44310	36500
0	44263	44310	36490
0	44269	44310	36480
0	44275	44310	36470
0	44281	44310	36460
0	44287	44310	36450
0	44293	44310	36440
0	44299	44310	36430
0	44305	44310	36420
0	44311	44310	36410
0	44317	44310	36400
0	44323	44310	36390
0	44329	44310	36380
0	44335	44310	36370
0	44341	44310	36360
0	44347	44310	36350
0	44353	44310	36340
0	44359	44310	36330
0	44365	44310	36320
0	44371	44310	36310
0	44377	44310	36300
0	44383	44310	36290
0	44389	44310	36280
0	44395	44310	36270
0	44401	44310	36260
0	44407	44310	36250
0	44413	44310	36240
0	44419	44310	36230
0	44425	44310	36220
0	44431	44310	36210
0	44437	44310	36200
0	44443	44310	36190
0	44449	44310	36180
0	44455	44310	36170
0	44461	44310	36160
0	44467	44310	36150
0	44473	44310	36140
0	44479	44310	36130
0	44485	44310	36120
0	44491	44310	36110
0	44497	44310	36100
0	44503	44310	36090
0	44509	44310	36080
0	44515	44310	36070
0	44521	44310	36060
0	44527	44310	36050
0	44533	44310	36040
0	44539	44310	36030
0	44545	44310	36020
0	44551	44310	36010
0	44557	44310	36000
0	44563	44310	35990
0	44569	44310	35980
0	44575	44310	35970
0	44581	44310	35960
0	44587	44310	35950
0	44593	44310	35940
0	44599	44310	35930
0	44605	44310	35920
0	44611	44310	35910
0	44617	44310	35900
0	44623	44310	35890
0	44629	44310	35880
0	44635	44310	35870
0	44641	44310	35860
0	44647	44310	35850
0	44653	44310	35840
0	44659	44310	35830
0	44665	44310	35820
0	44671	44310	35810
0	44677	44310	35800
0	44683	44310	35790
0	44689	44310	35780
0	44695	44310	35770
0	44701	44310	35760
0	44707	44310	35750
0	44713	44310	35740
0	44719	44310	35730
0	44725	44310	35720
0	44731	44310	35710
0	44737	44310	35700
0	44743	44310	35690
0	44749	44310	35680
0	44755	44310	35670
0	44761	44310	35660
0	44767	44310	35650
0	44773	44310	35640
0	44779	44310	35630
0	44785	44310	35620
0	44791	44310	35610
0	44797	44310	35600
0	44803	44310	35590
0	44809	44310	35580
0	44815	44310	35570
0	44821	44310	35560
0	44827	44310	35550
0	44833	44310	35540
0	44839	44310	35530
0	44845	44310	35520
0	44851	44310	35510
0	44857	44310	35500
0	44863	44310	35490
0	44869	44310	35480
0	44875	44310	35470
0	44881	44310	35460
0	44887	44310	35450
0	44893	44310	35440
0	44899	44310	35430
0	44905	44310	35420
0	44911	44310	35410
0	44917	44310	35400
0	44923	44310	35390
0	44929	44310	35380
0	44935	44310	35370
0	44941	44310	35360
0	44947	44310	35350
0	44953	44310	35340
0	44959	44310	35330
0	44965	44310	35320
0	44971	44310	35310
0	44977	44310	35300
0	44983	44310	35290
0	44989	44310	35280
0	44995	44310	35270
0	45001	44310	35260
0	45007	44310	35250
0	45013	44310	35240
0	45019	44310	35230
0	45025	44310	35220
0	45031	44310	35210
0	45037	44310	35200
0	45043	44310	35190
0	45049	44310	35180
0	45055	44310	35170
0	45061	44310	35160
0	45067	44310	35150
0	45073	44310	35140
0	45079	44310	35130
0	45085	44310	35120
0	45091	44310	35110
0	45097	44310	35100
0	45103	44310	35090
0	45109	44310	35080
0	45115	44310	35070
0	45121	44310	35060
0	45127	44310	35050
0	45133	44310	35040
0	45139	44310	35030
0	45145	44310	35020
0	45151	44310	35010
0	45157	44310	35000
0	45163	44310	34990
0	45169	44310	34980
0	45175	44310	34970
0	45181	44310	34960
0	45187	44310	34950
0	45193	44310	34940
0	45199	44310	34930
0	45205	44310	34920
0	45211	44310	34910
0	45217	44310	34900
0	45223	44310	34890
0	45229	44310	34880
0	45235	44310	34870
0	45241	44310	34860
0	45247	44310	34850
0	45253	44310	34840
0	45259	44310	34830
0	45265	44310	34820
0	45271	44310	34810
0	45277	44310	34800
0	45283	44310	34790
0	45289	44310	34780
0	45295	44310	34770
0	45301	44310	34760
0	45307	44310	34750
0	45313	44310	34740
0	45319	44310	34730
0	45325	44310	34720
0	45331	44310	34710
0	45337	44310	34700
0	45343	44310	34690
0	45349	44310	34680
0	45355	44310	34670
0	45361	44310	34660
0	45367	44310	34650
0	45373	44310	34640
0	45379	44310	34630
0	45385	44310	34620
0	45391	44310	34610
0	45397	44310	34600
0	45403	44310	34590
0	45409	44310	34580
0	45415	44310	34570
0	45421	44310	34560
0	45427	44310	34550
0	45433	44310	34540
0	45439	44310	34530
0	45445	44310	34520
0	45451	44310	34510
0	45457	44310	34500
0	45463	44310	34490
0	45469	44310	34480
0	45475	44310	34470
0	45481	44310	34460
0	45487	44310	34450
0	45493	44310	34440
0	45499	44310	34430
0	45505	44310	34420
0	45511	44310	34410
0	45517	44310	34400
0	45523	44310	34390
0	45529	44310	34380
0	45535	44310	34370
0	45541	44310	34360
0	45547	44310	34350
0	45553	44310	34340
0	45559	44310	34330
0	45565	44310	34320
0	45571	44310	34310
0	45577	44310	34300
0	45583	44310	34290
0	45589	44310	34280
0	45595	44310	34270
0	45601	44310	34260
0	45607	44310	34250
0	45613	44310	34240
0	45619	44310	34230
0	45625	44310	34220
0	45631	44310	34210
0	45637	44310	34200
0	45643	44310	34190
0	45649	44310	34180
0	45655	44310	34170
0	45661	44310	34160
0	45667	44310	34150
0	45673	44310	34140
0	45679	44310	34130
0	45685	44310	34120
0	45691	44310	34110
0	45697	44310	34100
0	45703	44310	34090
0	45709	44310	34080
0	45715	44310	34070
0	45721	44310	34060
0	45727	44310	34050
0	45733	44310	34040
0	45739	44310	34030
0	45745	44310	34020
0	45751	44310	34010
0	45757	44310	34000
0	45763	44310	33990
0	45769	44310	33980
0	45775	44310	33970
0	45781	44310	33960
0	45787	44310	33950
0	45793	44310	33940
0	45799	44310	33930
0	45805	44310	33920
0	45811	44310	33910
0	45817	44310	33900
0	45823	44310	33890
0	45829	44310	33880
0	45835	44310	33870
0	45841	44310	33860
0	45847	44310	33850
0	45853	44310	33840
0	45859	44310	33830
0	45865	44310	33820
0	45871	44310	33810
0	45877	44310	33800
0	45883	44310	33790
0	45889	44310	33780
0	45895	44310	33770
0	45901	44310	33760
0	45907	44310	33750
0	45913	44310	33740
0	45919	44310	33730
0	45925	44310	33720
0	45931	44310	33710
0	45937	44310	33700
0	45943	44310	33690
0	45949	44310	33680
0	45955	44310	33670
0	45961	44310	33660
0	45967	44310	33650
0	45973	44310	33640
0	45979	44310	33630
0	45985	44310	33620
0	45991	44310	33610
0	45997	44310	33600
0	46003	44310	33590
0	46009	44310	33580
0	46015	44310	33570
0	46021	44310	33560
0	46027	44310	33550
0	46033	44310	33540
0	46039	44310	33530
0	46045	44310	33520
0	46051	44310	33510
0	46057	44310	33500
0	46063	44310	33490
0	46069	44310	33480
0	46075	44310	33470
0	46081	44310	33460
0	46087	44310	33450
0	46093	44310	33440
0	46099	44310	33430
0	46105	44310	33420
0	46111	44310	33410
0	46117	44310	33400
0	46123	44310	33390
0	46129	44310	33380
0	46135	44310	33370
0	46141	44310	33360
0	46147	44310	33350
0	46153	44310	33340
0	46159	44310	33330
0	46165	44310	33320
0	46171	44310	33310
0	46177	44310	33300
0	46183	44310	33290
0	46189	44310	33280
0	46195	44310	33270
0	46201	44310	33260
0	46207	44310	33250
0	46213	44310	33240
0	46219	44310	33230
0	46225	44310	33220
0	46231	44310	33210
0	46237	44310	33200
0	46243	44310	33190
0	46249	44310	33180
0	46255	44310	33170
0	46261	44310	33160
0	46267	44310	33150
0	46273	44310	33140
0	46279	44310	33130
0	46285	44310	33120
0	46291	44310	33110
0	46297	44310	33100
0	46303	44310	33090
0	46309	44310	33080
0	46315	44310	33070
0	46321	44310	33060
0	46327	44310	33050
0	46333	44310	33040
0	46339	44310	33030
0	46345	44310	33020
0	46351	44310	33010
0	46357	44310	33000
0	46363	44310	32990
0	46369	44310	32980
0	46375	44310	32970
0	46381	44310	32960
0	46387	44310	32950
0	46393	44310	32940
0	46399	44310	32930
0	46405	44310	32920
0	46411	44310	32910
0	46417	44310	32900
0	46423	44310	32890
0	46429	44310	32880
0	46435	44310	32870
0	46441	44310	32860
0	46447	44310	32850
0	46453	44310	32840
0	46459	44310	32830
0	46465	44310	32820
0	46471	44310	32810
0	46477	44310	32800
0	46483	44310	32790
0	46489	44310	32780
0	46495	44310	32770
0	46501	44310	32760
0	46507	44310	32750
0	46513	44310	32740
0	46519	44310	32730
0	46525	44310	32720
0	46531	44310	32710
0	46537	44310	32700
0	46543	44310	32690
0	46549	44310	32680
0	46555	44310	32670
0	46561	44310	32660
0	46567	44310	32650
0	46573	44310	32640
0	46579	44310	32630
0	46585	44310	32620
0	46591	44310	32610
0	46597	44310	32600
0	46603	44310	32590
0	46609	44310	32580
0	46615	44310	32570
0	46621	44310	32560
0	46627	44310	32550
0	46633	44310	32540
0	46639	44310	32530
0	46645	44310	32520
0	46651	44310	32510
0	46657	44310	32500
0	46663	44310	32490
0	46669	44310	32480
0	46675	44310	32470
0	46681	44310	32460
0	46687	44310	32450
0	46693	44310	32440
0	46699	44310	32430
0	46705	44310	32420
0	46711	44310	32410
0	46717	44310	32400
0	46723	44310	32390
0	46729	44310	32380
0	46735	44310	32370
0	46741	44310	32360
0	46747	44310	32350
0	46753	44310	32340
0	46759	44310	32330
0	46765	44310	32320
0	46771	44310	32310
0	46777	44310	32300
0	46783	44310	32290
0	46789	44310	32280
0	46795	44310	32270
0	46801	44310	32260
0	46807	44310	32250
0	46813	44310	32240
0	46819	44310	32230
0	46825	44310	32220
0	46831	44310	32210
0	46837	44310	32200
0	46843	44310	32190
0	46849	44310	32180
0	46855	44310	32170
0	46861	44310	32160
0	46867	44310	32150
0	46873	44310	32140
0	46879	44310	32130
0	46885	44310	32120
0	46891	44310	32110
0	46897	44310	32100
0	46903	44310	32090
0	46909	44310	32080
0	46915	44310	32070
0	46921	44310	32060
0	46927	44310	32050
0	46933	44310	32040
0	46939	44310	32030
0	46945	44310	32020
0	46951	44310	32010
0	46957	44310	32000
0	46963	44310	31990
0	46969	44310	31980
0	46975	44310	31970
0	46981	44310	31960
0	46987	44310	31950
0	46993	44310	31940
0	46999	44310	31930
0	47005	44310	31920
0	47011	44310	31910
0	47017	44310	31900
0	47023	44310	31890
0	47029	44310	31880
0	47035	44310	31870
0	47041	44310	31860
0	47047	44310	31850
0	47053	44310	31840
0	47059	44310	31830
0	47065	44310	31820
0	47071	44310	31810
0	47077	44310	31800
0	47083	44310	31790
0	47089	44310	31780
0	47095	44310	31770
0	47101	44310	31760
0	47107	44310	31750
0	47113	44310	31740
0	47119	44310	31730
0	47125	44310	31720
0	47131	44310	31710
0	47137	44310	31700
0	47143	44310	31690
0	47149	44310	31680
0	47155	44310	31670
0	47161	44310	31660
0	47167	44310	31650
0	47173	44310	31640
0	47179	44310	31630
0	47185	44310	31620
0	47191	44310	31610
0	47197	44310	31600
0	47203	44310	31590
0	47209	44310	31580
0	47215	44310	31570
0	47221	44310	31560
0	47227	44310	31550
0	47233	44310	31540
0	47239	44310	31530
0	47245	44310	31520
0	47251	44310	31510
0	47257	44310	31500
0	47263	44310	31490
0	47269	44310	31480
0	47275	44310	31470
0	47281	44310	31460
0	47287	44310	31450
0	47293	44310	31440
0	47299	44310	31430
0	47305	44310	31420
0	47311	44310	31410
0	47317	44310	31400
0	47323	44310	31390
0	47329	44310	31380
0	47335	44310	31370
0	47341	44310	31360
0	47347	44310	31350
0	47353	44310	31340
0	47359	44310	31330
0	47365	44310	31320
0	47371	44310	31310
0	47377	44310	31300
0	47383	44310	31290
0	47389	44310	31280
0	47395	44310	31270
0	47401	44310	31260
0	47407	44310	31250
0	47413	44310	31240
0	47419	44310	31230
0	47425	44310	31220
0	47431	44310	31210
0	47437	44310	31200
0	47443	44310	31190
0	47449	44310	31180
0	47455	44310	31170
0	47461	44310	31160
0	47467	44310	31150
0	47473	44310	31140
0	47479	44310	31130
0	47485	44310	31120
0	47491	44310	31110
0	47497	44310	31100
0	47503	44310	31090
0	47509	44310	31080
0	47515	44310	31070
0	47521	44310	31060
0	47527	44310	31050
0	47533	44310	31040
0	47539	44310	31030
0	47545	44310	31020
0	47551	44310	31010
0	47557	44310	31000
0	47563	44310	30990
0	47569	44310	30980
0	47575	44310	30970
0	47581	44310	30960
0	47587	44310	30950
0	47593	44310	30940
0	47599	44310	30930
0	47605	44310	30920
0	47611	44310	30910
0	47617	44310	30900
0	47623	44310	30890
0	47629	44310	30880
0	47635	44310	30870
0	47641	44310	30860
0	47647	44310	30850
0	47653	44310	30840
0	47659	44310	30830
0	47665	44310	30820
0	47671	44310	30810
0	47677	44310	30800
0	47683	44310	30790
0	47689	44310	30780
0	47695	44310	30770
0	47701	44310	30760
0	47707	44310	30750
0	47713	44310	30740
0	47719	44310	30730
0	47725	44310	30720
0	47731	44310	30710
0	47737	44310	30700
0	47743	44310	30690
0	47749	44310	30680
0	47755	44310	30670
0	47761	44310	30660
0	47767	44310	30650
0	47773	44310	30640
0	47779	44310	30630
0	47785	44310	30620
0	47791	44310	30610
0	47797	44310	30600
0	47803	44310	30590
0	47809	44310	30580
0	47815	44310	30570
0	47821	44310	30560
0	47827	44310	30550
0	47833	44310	30540
0	47839	44310	30530
0	47845	44310	30520
0	47851	44310	30510
0	47857	44310	30500
0	47863	44310	30490
0	47869	44310	30480
0	47875	44310	30470
0	47881	44310	30460
0	47887	44310	30450
0	47893	44310	30440
0	47899	44310	30430
0	47905	44310	30420
0	47911	44310	30410
0	47917	44310	30400
0	47923	44310	30390
0	47929	44310	30380
0	47935	44310	30370
0	47941	44310	30360
0	47947	44310	30350
0	47953	44310	30340
0	47959	44310	30330
0	47965	44310	30320
0	47971	44310	30310
0	47977	44310	30300
0	47983	44310	30290
0	47989	44310	30280
0	47995	44310	30270
0	48001	44310	30260
0	48007	44310	30250
0	48013	44310	30240
0	48019	44310	30230
0	48025	44310	30220
0	48031	44310	30210
0	48037	44310	30200
0	48043	44310	30190
0	48049	44310	30180
0	48055	44310	30170
0	48061	44310	30160
0	48067	44310	30150
0	48073	44310	30140
0	48079	44310	30130
0	48085	44310	30120
0	48091	44310	30110
0	48097	44310	30100
0	48103	44310	30090
0	48109	44310	30080
0	48115	44310	30070
0	48121	44310	30060
0	48127	44310	30050
0	48133	44310	30040
0	48139	44310	30030
0	48145	44310	30020
0	48151	44310	30010
0	48157	44310	30000
0	48163	44310	29990
0	48169	44310	29980
0	48175	44310	29970
0	48181	44310	29960
0	48187	44310	29950
0	48193	44310	29940
0	48199	44310	29930
0	48205	44310	29920
0	48211	44310	29910
0	48217	44310	29900
0	48223	44310	29890
0	48229	44310	29880
0	48235	44310	29870
0	48241	44310	29860
0	48247	44310	29850
0	48253	44310	29840
0	48259	44310	29830
0	48265	44310	29820
0	48271	44310	29810
0	48277	44310	29800
0	48283	44310	29790
0	48289	44310	29780
0	48295	44310	29770
0	48301	44310	29760
0	48307	44310	29750
0	48313	44310	29740
0	48319	44310	29730
0	48325	44310	29720
0	48331	44310	29710
0	48337	44310	29700
0	48343	44310	29690
0	48349	44310	29680
0	48355	44310	29670
0	48361	44310	29660
0	48367	44310	29650
0	48373	44310	29640
0	48379	44310	29630
0	48385	44310	29620
0	48391	44310	29610
0	48397	44310	29600
0	48403	44310	29590
0	48409	44310	29580
0	48415	44310	29570
0	48421	44310	29560
0	48427	44310	29550
0	48433	44310	29540
0	48439	44310	29530
0	48445	44310	29520
0	48451	44310	29510
0	48457	44310	29500
0	48463	44310	29490
0	48469	44310	29480
0	48475	44310	29470
0	48481	44310	29460
0	48487	44310	29450
0	48493	44310	29440
0	48499	44310	29430
0	48505	44310	29420
0	48511	44310	29410
0	48517	44310	29400
0	48523	44310	29390
0	48529	44310	29380
0	48535	44310	29370
0	48541	44310	29360
0	48547	44310	29350
0	48553	44310	29340
0	48559	44310	29330
0	48565	44310	29320
0	48571	44310	29310
0	48577	44310	29300
0	48583	44310	29290
0	48589	44310	29280
0	48595	44310	29270
0	48601	44310	29260
0	48607	44310	29250
0	48613	44310	29240
0	48619	44310	29230
0	48625	44310	29220
0	48631	44310	29210
0	48637	44310	29200
0	48643	44310	29190
0	48649	44310	29180
0	48655	44310	29170
0	48661	44310	29160
0	48667	44310	29150
0	48673	44310	29140
0	48679	44310	29130
0	48685	44310	29120
0	48691	44310	29110
0	48697	44310	29100
0	48703	44310	29090
0	48709	44310	29080
0	48715	44310	29070
0	48721	44310	29060
0	48727	44310	29050
0	48733	44310	29040
0	48739	44310	29030
0	48745	44310	29020
0	48751	44310	29010
0	48757	44310	29000
0	48763	44310	28990
0	48769	44310	28980
0	48775	44310	28970
0	48781	44310	28960
0	48787	44310	28950
0	48793	44310	28940
0	48799	44310	28930
0	48805	44310	28920
0	48811	44310	28910
0	48817	44310	28900
0	48823	44310	28890
0	48829	44310	28880
0	48835	44310	28870
0	48841	44310	28860
0	48847	44310	28850
0	48853	44310	28840
0	48859	44310	28830
0	48865	44310	28820
0	48871	44310	28810
0	48877	44310	28800
0	48883	44310	28790
0	48889	44310	28780
0	48895	44310	28770
0	48901	44310	28760
0	48907	44310	28750
0	48913	44310	28740
0	48919	44310	28730
0	48925	44310	28720
0	48931	44310	28710
0	48937	44310	28700
0	48943	44310	28690
0	48949	44310	28680
0	48955	44310	28670
0	48961	44310	28660
0	48967	44310	28650
0	48973	44310	28640
0	48979	44310	28630
0	48985	44310	28620
0	48991	44310	28610
0	48997	44310	28600
0	49003	44310	28590
0	49009	44310	28580
0	49015	44310	28570
0	49021	44310	28560
0	49027	44310	28550
0	49033	44310	28540
0	49039	44310	28530
0	49045	44310	28520
0	49051	44310	28510
0	49057	44310	28500
0	49063	44310	28490
0	49069	44310	28480
0	49075	44310	28470
0	49081	44310	28460
0	49087	44310	28450
0	49093	44310	28440
0	49099	44310	28430
0	49105	44310	28420
0	49111	44310	28410
0	49117	44310	28400
0	49123	44310	28390
0	49129	44310	28380
0	49135	44310	28370
0	49141	44310	28360
0	49147	44310	28350
0	49153	44310	28340
0	49159	44310	28330
0	49165	44310	28320
0	49171	44310	28310
0	49177	44310	28300
0	49183	44310	28290
0	49189	44310	28280
0	49195	44310	28270
0	49201	44310	28260
0	49207	44310	28250
0	49213	44310	28240
0	49219	44310	28230
0	49225	44310	28220
0	49231	44310	28210
0	49237	44310	28200
0	49243	44310	28190
0	49249	44310	28180
0	49255	44310	28170
0	49261	44310	28160
0	49267	44310	28150
0	49273	44310	28140
0	49279	44310	28130
0	49285	44310	28120
0	49291	44310	28110
0	49297	44310	28100
0	49303	44310	28090
0	49309	44310	28080
0	49315	44310	28070
0	49321	44310	28060
0	49327	44310	28050
0	49333	44310	28040
0	49339	44310	28030
0	49345	44310	28020
0	49351	44310	28010
0	49357	44310	28000
0	49363	44310	27990
0	49369	44310	27980
0	49375	44310	27970
0	49381	44310	27960
0	49387	44310	27950
0	49393	44310	27940
0	49399	44310	27930
0	49405	44310	27920
0	49411	44310	27910
0	49417	44310	27900
0	49423	44310	27890
0	49429	44310	27880
0	49435	44310	27870
0	49441	44310	27860
0	49447	44310	27850
0	49453	44310	27840
0	49459	44310	27830
0	49465	44310	27820
0	49471	44310	27810
0	49477	44310	27800
0	49483	44310	27790
0	49489	44310	27780
0	49495	44310	27770
0	49501	44310	27760
0	49507	44310	27750
0	49513	44310	27740
0	49519	44310	27730
0	49525	44310	27720
0	49531	44310	27710
0	49537	44310	27700
0	49543	44310	27690
0	49549	44310	27680
0	49555	44310	27670
0	49561	44310	27660
0	49567	44310	27650
0	49573	44310	27640
0	49579	44310	27630
0	49585	44310	27620
0	49591	44310	27610
0	49597	44310	27600
0	49603	44310	27590
0	49609	44310	27580
0	49615	44310	27570
0	49621	44310	27560
0	49627	44310	27550
0	49633	44310	27540
0	49639	44310	27530
0	49645	44310	27520
0	49651	44310	27510
0	49657	44310	27500
0	49663	44310	27490
0	49669	44310	27480
0	49675	44310	27470
0	49681	44310	27460
0	49687	44310	27450
0	49693	44310	27440
0	49699	44310	27430
0	49705	44310	27420
0	49711	44310	27410
0	49717	44310	27400
0	49723	44310	27390
0	49729	44310	27380
0	49735	44310	27370
0	49741	44310	27360
0	49747	44310	27350
0	49753	44310	27340
0	49759	44310	27330
0	49765	44310	27320
0	49771	44310	27310
0	49777	44310	27300
0	49783	44310	27290
0	49789	44310	27280
0	49795	44310	27270
0	49801	44310	27260
0	49807	44310	27250
0	49813	44310	27240
0	49819	44310	27230
0	49825	44310	27220
0	49831	44310	27210
0	49837	44310	27200
0	49843	44310	27190
0	49849	44310	27180
0	49855	44310	27170
0	49861	44310	27160
0	49867	44310	27150
0	49873	44310	27140
0	49879	44310	27130
0	49885	44310	27120
0	49891	44310	27110
0	49897	44310	27100
0	49903	44310	27090
0	49909	44310	27080
0	49915	44310	27070
0	49921	44310	27060
0	49927	44310	27050
0	49933	44310	27040
0	49939	44310	27030
0	49945	44310	27020
0	49951	44310	27010
0	49957	44310	27000
0	49963	44310	26990
0	49969	44310	26980
0	49975	44310	26970
0	49981	44310	26960
0	49987	44310	26950
0	49993	44310	26940
0	49999	44310	26930
0	50005	44310	26920
0	50011	44310	26910
0	50017	44310	26900
0	50023	44310	26890
0	50029	44310	26880
0	50035	44310	26870
0	50041	44310	26860
0	50047	44310	26850
0	50053	44310	26840
0	50059	44310	26830
0	50065	44310	26820
0	50071	44310	26810
0	50077	44310	26800
0	50083	44310	26790
0	50089	44310	26780
0	50095	44310	26770
0	50101	44310	26760
0	50107	44310	26750
0	50113	44310	26740
0	50119	44310	26730
0	50125	44310	26720
0	50131	44310	26710
0	50137	44310	26700
0	50143	44310	26690
0	50149	44310	26680
0	50155	44310	26670
0	50161	44310	26660
0	50167	44310	26650
0	50173	44310	26640
0	50179	44310	26630
0	50185	44310	26620
0	50191	44310	26610
0	50197	44310	26600
0	50203	44310	26590
0	50209	44310	26580
0	50215	44310	26570
0	50221	44310	26560
0	50227	44310	26550
0	50233	44310	26540
0	50239	44310	26530
0	50245	44310	26520
0	50251	44310	26510
0	50257	44310	26500
0	50263	44310	26490
0	50269	44310	26480
0	50275	44310	26470
0	50281	44310	26460
0	50287	44310	26450
0	50293	44310	26440
0	50299	44310	26430
0	50305	44310	26420
0	50311	44310	26410
0	50317	44310	26400
0	50323	44310	26390
0	50329	44310	26380
0	50335	44310	26370
0	50341	44310	26360
0	50347	44310	26350
0	50353	44310	26340
0	50359	44310	26330
0	50365	44310	26320
0	50371	44310	26310
0	50377	44310	26300
0	50383	44310	26290
0	50389	44310	26280
0	50395	44310	26270
0	50401	44310	26260
0	50407	44310	26250
0	50413	44310	26240
0	50419	44310	26230
0	50425	44310	26220
0	50431	44310	26210
0	50437	44310	26200
0	50443	44310	26190
0	50449	44310	26180
0	50455	44310	26170
0	50461	44310	26160
0	50467	44310	26150
0	50473	44310	26140
0	50479	44310	26130
0	50485	44310	26120
0	50491	44310	26110
0	50497	44310	26100
0	50503	44310	26090
0	50509	44310	26080
0	50515	44310	26070
0	50521	44310	26060
0	50527	44310	26050
0	50533	44310	26040
0	50539	44310	26030
0	50545	44310	26020
0	50551	44310	26010
0	50557	44310	26000
0	50563	44310	25990
0	50569	44310	25980
0	50575	44310	25970
0	50581	44310	25960
0	50587	44310	25950
0	50593	44310	25940
0	50599	44310	25930
0	50605	44310	25920
0	50611	44310	25910
0	50617	44310	25900
0	50623	44310	25890
0	50629	44310	25880
0	50635	44310	25870
0	50641	44310	25860
0	50647	44310	25850
0	50653	44310	25840
0	50659	44310	25830
0	50665	44310	25820
0	50671	44310	25810
0	50677	44310	25800
0	50683	44310	25790
0	50689	44310	25780
0	50695	44310	25770
0	50701	44310	25760
0	50707	44310	25750
0	50713	44310	25740
0	50719	44310	25730
0	50725	44310	25720
0	50731	44310	25710
0	50737	44310	25700
0	50743	44310	25690
0	50749	44310	25680
0	50755	44310	25670
0	50761	44310	25660
0	50767	44310	25650
0	50773	44310	25640
0	50779	44310	25630
0	50785	44310	25620
0	50791	44310	25610
0	50797	44310	25600
0	50803	44310	25590
0	50809	44310	25580
0	50815	44310	25570
0	50821	44310	25560
0	50827	44310	25550
0	50833	44310	25540
0	50839	44310	25530
0	50845	44310	25520
0	50851	44310	25510
0	50857	44310	25500
0	50863	44310	25490
0	50869	44310	25480
0	50875	44310	25470
0	50881	44310	25460
0	50887	44310	25450
0	50893	44310	25440
0	50899	44310	25430
0	50905	44310	25420
0	50911	44310	25410
0	50917	44310	25400
0	50923	44310	25390
0	50929	44310	25380
0	50935	44310	25370
0	50941	44310	25360
0	50947	44310	25350
0	50953	44310	25340
0	50959	44310	25330
0	50965	44310	25320
0	50971	44310	25310
0	50977	44310	25300
0	50983	44310	25290
0	50989	44310	25280
0	50995	44310	25270
0	51001	44310	25260
0	51007	44310	25250
0	51013	44310	25240
0	51019	44310	25230
0	51025	44310	25220
0	51031	44310	25210
0	51037	44310	25200
0	51043	44310	25190
0	51049	44310	25180
0	51055	44310	25170
0	51061	44310	25160
0	51067	44310	25150
0	51073	44310	25140
0	51079	44310	25130
0	51085	44310	25120
0	51091	44310	25110
0	51097	44310	25100
0	51103	44310	25090
0	51109	44310	25080
0	51115	44310	25070
0	51121	44310	25060
0	51127	44310	25050
0	51133	44310	25040
0	51139	44310	25030
0	51145	44310	25020
0	51151	44310	25010
0	51157	44310	25000
0	51163	44310	24990
0	51169	44310	24980
0	51175	44310	24970
0	51181	44310	24960
0	51187	44310	24950
0	51193	44310	24940
0	51199	44310	24930
0	51205	44310	24920
0	51211	44310	24910
0	51217	44310	24900
0	51223	44310	24890
0	51229	44310	24880
0	51235	44310	24870
0	51241	44310	24860
0	51247	44310	24850
0	51253	44310	24840
0	51259	44310	24830
0	51265	44310	24820
0	51271	44310	24810
0	51277	44310	24800
0	51283	44310	24790
0	51289	44310	24780
0	51295	44310	24770
0	51301	44310	24760
0	51307	44310	24750
0	51313	44310	24740
0	51319	44310	24730
0	51325	44310	24720
0	51331	44310	24710
0	51337	44310	24700
0	51343	44310	24690
0	51349	44310	24680
0	51355	44310	24670
0	51361	44310	24660
0	51367	44310	24650
0	51373	44310	24640
0	51379	44310	24630
0	51385	44310	24620
0	51391	44310	24610
0	51397	44310	24600
0	51403	44310	24590
0	51409	44310	24580
0	51415	44310	24570
0	51421	44310	24560
0	51427	44310	24550
0	51433	44310	24540
0	51439	44310	24530
0	51445	44310	24520
0	51451	44310	24510
0	51457	44310	24500
0	51463	44310	24490
0	51469	44310	24480
0	51475	44310	24470
0	51481	44310	24460
0	51487	44310	24450
0	51493	44310	24440
0	51499	44310	24430
0	51505	44310	24420
0	51511	44310	24410
0	51517	44310	24400
0	51523	44310	24390
0	51529	44310	24380
0	51535	44310	24370
0	51541	44310	24360
0	51547	44310	24350
0	51553	44310	24340
0	51559	44310	24330
0	51565	44310	24320
0	51571	44310	24310
0	51577	44310	24300
0	51583	44310	24290
0	51589	44310	24280
0	51595	44310	24270
0	51601	44310	24260
0	51607	44310	24250
0	51613	44310	24240
0	51619	44310	24230
0	51625	44310	24220
0	51631	44310	24210
0	51637	44310	24200
0	51643	44310	24190
0	51649	44310	24180
0	51655	44310	24170
0	51661	44310	24160
0	51667	44310	24150
0	51673	44310	24140
0	51679	44310	24130
0	51685	44310	24120
0	51691	44310	24110
0	51697	44310	24100
0	51703	44310	24090
0	51709	44310	24080
0	51715	44310	24070
0	51721	44310	24060
0	51727	44310	24050
0	51733	44310	24040
0	51739	44310	24030
0	51745	44310	24020
0	51751	44310	24010
0	51757	44310	24000
0	51763	44310	23990
0	51769	44310	23980
0	51775	44310	23970
0	51781	44310	23960
0	51787	44310	23950
0	51793	44310	23940
0	51799	44310	23930
0	51805	44310	23920
0	51811	44310	23910
0	51817	44310	23900
0	51823	44310	23890
0	51829	44310	23880
0	51835	44310	23870
0	51841	44310	23860
0	51847	44310	23850
0	51853	44310	23840
0	51859	44310	23830
0	51865	44310	23820
0	51871	44310	23810
0	51877	44310	23800
0	51883	44310	23790
0	51889	44310	23780
0	51895	44310	23770
0	51901	44310	23760
0	51907	44310	23750
0	51913	44310	23740
0	51919	44310	23730
0	51925	44310	23720
0	51931	44310	23710
0	51937	44310	23700
0	51943	44310	23690
0	51949	44310	23680
0	51955	44310	23670
0	51961	44310	23660
0	51967	44310	23650
0	51973	44310	23640
0	51979	44310	23630
0	51985	44310	23620
0	51991	44310	23610
0	51997	44310	23600
0	52003	44310	23590
0	52009	44310	23580
0	52015	44310	23570
0	52021	44310	23560
0	52027	44310	23550
0	52033	44310	23540
0	52039	44310	23530
0	52045	44310	23520
0	52051	44310	23510
0	52057	44310	23500
0	52063	44310	23490
0	52069	44310	23480
0	52075	44310	23470
0	52081	44310	23460
0	52087	44310	23450
0	52093	44310	23440
0	52099	44310	23430
0	52105	44310	23420
0	52111	44310	23410
0	52117	44310	23400
0	52123	44310	23390
0	52129	44310	23380
0	52135	44310	23370
0	52141	44310	23360
0	52147	44310	23350
0	52153	44310	23340
0	52159	44310	23330
0	52165	44310	23320
0	52171	44310	23310
0	52177	44310	23300
0	52183	44310	23290
0	52189	44310	23280
0	52195	44310	23270
0	52201	44310	23260
0	52207	44310	23250
0	52213	44310	23240
0	52219	44310	23230
0	52225	44310	23220
0	52231	44310	23210
0	52237	44310	23200
0	52243	44310	23190
0	52249	44310	23180
0	52255	44310	23170
0	52261	44310	23160
0	52267	44310	23150
0	52273	44310	23140
0	52279	44310	23130
0	52285	44310	23120
0	52291	44310	23110
0	52297	44310	23100
0	52303	44310	23090
0	52309	44310	23080
0	52315	44310	23070
0	52321	44310	23060
0	52327	44310	23050
0	52333	44310	23040
0	52339	44310	23030
0	52345	44310	23020
0	52351	44310	23010
0	52357	44310	23000
0	52363	44310	22990
0	52369	44310	22980
0	52375	44310	22970
0	52381	44310	22960
0	52387	44310	22950
0	52393	44310	22940
0	52399	44310	22930
0	52405	44310	22920
0	52411	44310	22910
0	52417	44310	22900
0	52423	44310	22890
0	52429	44310	22880
0	52435	44310	22870
0	52441	44310	22860
0	52447	44310	22850
0	52453	44310	22840
0	52459	44310	22830
0	52465	44310	22820
0	52471	44310	22810
0	52477	44310	22800
0	52483	44310	22790
0	52489	44310	22780
0	52495	44310	22770
0	52501	44310	22760
0	52507	44310	22750
0	52513	44310	22740
0	52519	44310	22730
0	52525	44310	22720
0	52531	44310	22710
0	52537	44310	22700
0	52543	44310	22690
0	52549	44310	22680
0	52555	44310	22670
0	52561	44310	22660
0	52567	44310	22650
0	52573	44310	22640
0	52579	44310	22630
0	52585	44310	22620
0	52591	44310	22610
0	52597	44310	22600
0	52603	44310	22590
0	52609	44310	22580
0	52615	44310	22570
0	52621	44310	22560
0	52627	44310	22550
0	52633	44310	22540
0	52639	44310	22530
0	52645	44310	22520
0	52651	44310	22510
0	52657	44310	22500
0	52663	44310	22490
0	52669	44310	22480
0	52675	44310	22470
0	52681	44310	22460
0	52687	44310	22450
0	52693	44310	22440
0	52699	44310	22430
0	52705	44310	22420
0	52711	44310	22410
0	52717	44310	22400
0	52723	44310	22390
0	52729	44310	22380
0	52735	44310	22370
0	52741	44310	22360
0	52747	44310	22350
0	52753	44310	22340
0	52759	44310	22330
0	52765	44310	22320
0	52771	44310	22310
0	52777	44310	22300
0	52783	44310	22290
0	52789	44310	22280
0	52795	44310	22270
0	52801	44310	22260
0	52807	44310	22250
0	52813	44310	22240
0	52819	44310	22230
0	52825	44310	22220
0	52831	44310	22210
0	52837	44310	22200
0	52843	44310	22190
0	52849	44310	22180
0	52855	44310	22170
0	52861	44310	22160
0	52867	44310	22150
0	52873	44310	22140
0	52879	44310	22130
0	52885	44310	22120
0	52891	44310	22110
0	52897	44310	22100
0	52903	44310	22090
0	52909	44310	22080
0	52915	44310	22070
0	52921	44310	22060
0	52927	44310	22050
0	52933	44310	22040
0	52939	44310	22030
0	52945	44310	22020
0	52951	44310	22010
0	52957	44310	22000
0	52963	44310	21990
0	52969	44310	21980
0	52975	44310	21970
0	52981	44310	21960
0	52987	44310	21950
0	52993	44310	21940
0	52999	44310	21930
0	53005	44310	21920
0	53011	44310	21910
0	53017	44310	21900
0	53023	44310	21890
0	53029	44310	21880
0	53035	44310	21870
0	53041	44310	21860
0	53047	44310	21850
0	53053	44310	21840
0	53059	44310	21830
0	53065	44310	21820
0	53071	44310	21810
0	53077	44310	21800
0	53083	44310	21790
0	53089	44310	21780
0	53095	44310	21770
0	53101	44310	21760
0	53107	44310	21750
0	53113	44310	21740
0	53119	44310	21730
0	53125	44310	21720
0	53131	44310	21710
0	53137	44310	21700
0	53143	44310	21690
0	53149	44310	21680
0	53155	44310	21670
0	53161	44310	21660
0	53167	44310	21650
0	53173	44310	21640
0	53179	44310	21630
0	53185	44310	21620
0	53191	44310	21610
0	53197	44310	21600
0	53203	44310	21590
0	53209	44310	21580
0	53215	44310	21570
0	53221	44310	21560
0	53227	44310	21550
0	53233	44310	21540
0	53239	44310	21530
0	53245	44310	21520
0	53251	44310	21510
0	53257	44310	21500
0	53263	44310	21490
0	53269	44310	21480
0	53275	44310	21470
0	53281	44310	21460
0	53287	44310	21450
0	53293	44310	21440
0	53299	44310	21430
0	53305	44310	21420
0	53311	44310	21410
0	53317	44310	21400
0	53323	44310	21390
0	53329	44310	21380
0	53335	44310	21370
0	53341	44310	21360
0	53347	44310	21350
0	53353	44310	21340
0	53359	44310	21330
0	53365	44310	21320
0	53371	44310	21310
0	53377	44310	21300
0	53383	44310	21290
0	53389	44310	21280
0	53395	44310	21270
0	53401	44310	21260
0	53407	44310	21250
0	53413	44310	21240
0	53419	44310	21230
0	53425	44310	21220
0	53431	44310	21210
0	53437	44310	21200
0	53443	44310	21190
0	53449	44310	21180
0	53455	44310	21170
0	53461	44310	21160
0	53467	44310	21150
0	53473	44310	21140
0	53479	44310	21130
0	53485	44310	21120
0	53491	44310	21110
0	53497	44310	21100
0	53503	44310	21090
0	53509	44310	21080
0	53515	44310	21070
0	53521	44310	21060
0	53527	44310	21050
0	53533	44310	21040
0	53539	44310	21030
0	53545	44310	21020
0	53551	44310	21010
0	53557	44310	21000
0	53563	44310	20990
0	53569	44310	20980
0	53575	44310	20970
0	53581	44310	20960
0	53587	44310	20950
0	53593	44310	20940
0	53599	44310	20930
0	53605	44310	20920
0	53611	44310	20910
0	53617	44310	20900
0	53623	44310	20890
0	53629	44310	20880
0	53635	44310	20870
0	53641	44310	20860
0	53647	44310	20850
0	53653	44310	20840
0	53659	44310	20830
0	53665	44310	20820
0	53671	44310	20810
0	53677	44310	20800
0	53683	44310	20790
0	53689	44310	20780
0	53695	44310	20770
0	53701	44310	20760
0	53707	44310	20750
0	53713	44310	20740
0	53719	44310	20730
0	53725	44310	20720
0	53731	44310	20710
0	53737	44310	20700
0	53743	44310	20690
0	53749	44310	20680
0	53755	44310	20670
0	53761	44310	20660
0	53767	44310	20650
0	53773	44310	20640
0	53779	44310	20630
0	53785	44310	20620
0	53791	44310	20610
0	53797	44310	20600
0	53803	44310	20590
0	53809	44310	20580
0	53815	44310	20570
0	53821	44310	20560
0	53827	44310	20550
0	53833	44310	20540
0	53839	44310	20530
0	53845	44310	20520
0	53851	44310	20510
0	53857	44310	20500
0	53863	44310	20490
0	53869	44310	20480
0	53875	44310	20470
0	53881	44310	20460
0	53887	44310	20450
0	53893	44310	20440
0	53899	44310	20430
0	53905	44310	20420
0	53911	44310	20410
0	53917	44310	20400
0	53923	44310	20390
0	53929	44310	20380
0	53935	44310	20370
0	53941	44310	20360
0	53947	44310	20350
0	53953	44310	20340
0	53959	44310	20330
0	53965	44310	20320
0	53971	44310	20310
0	53977	44310	20300
0	53983	44310	20290
0	53989	44310	20280
0	53995	44310	20270
0	54001	44310	20260
0	54007	44310	20250
0	54013	44310	20240
0	54019	44310	20230
0	54025	44310	20220
0	54031	44310	20210
0	54037	44310	20200
0	54043	44310	20190
0	54049	44310	20180
0	54055	44310	20170
0	54061	44310	20160
0	54067	44310	20150
0	54073	44310	20140
0	54079	44310	20130
0	54085	44310	20120
0	54091	44310	20110
0	54097	44310	20100
0	54103	44310	20090
0	54109	44310	20080
0	54115	44310	20070
0	54121	44310	20060
0	54127	44310	20050
0	54133	44310	20040
0	54139	44310	20030
0	54145	44310	20020
0	54151	44310	20010
0	54157	44310	20000
0	54163	44310	19990
0	54169	44310	19980
0	54175	44310	19970
0	54181	44310	19960
0	54187	44310	19950
0	54193	44310	19940
0	54199	44310	19930
0	54205	44310	19920
0	54211	44310	19910
0	54217	44310	19900
0	54223	44310	19890
0	54229	44310	19880
0	54235	44310	19870
0	54241	44310	19860
0	54247	44310	19850
0	54253	44310	19840
0	54259	44310	19830
0	54265	44310	19820
0	54271	44310	19810
0	54277	44310	19800
0	54283	44310	19790
0	54289	44310	19780
0	54295	44310	19770
0	54301	44310	19760
0	54307	44310	19750
0	54313	44310	19740
0	54319	44310	19730
0	54325	44310	19720
0	54331	44310	19710
0	54337	44310	19700
0	54343	44310	19690
0	54349	44310	19680
0	54355	44310	19670
0	54361	44310	19660
0	54367	44310	19650
0	54373	44310	19640
0	54379	44310	19630
0	54385	44310	19620
0	54391	44310	19610
0	54397	44310	19600
0	54403	44310	19590
0	54409	44310	19580
0	54415	44310	19570
0	54421	44310	19560
0	54427	44310	19550
0	54433	44310	19540
0	54439	44310	19530
0	54445	44310	19520
0	54451	44310	19510
0	54457	44310	19500
0	54463	44310	19490
0	54469	44310	19480
0	54475	44310	19470
0	54481	44310	19460
0	54487	44310	19450
0	54493	44310	19440
0	54499	44310	19430
0	54505	44310	19420
0	54511	44310	19410
0	54517	44310	19400
0	54523	44310	19390
0	54529	44310	19380
0	54535	44310	19370
0	54541	44310	19360
0	54547	44310	19350
0	54553	44310	19340
0	54559	44310	19330
0	54565	44310	19320
0	54571	44310	19310
0	54577	44310	19300
0	54583	44310	19290
0	54589	44310	19280
0	54595	44310	19270
0	54601	44310	19260
0	54607	44310	19250
0	54613	44310	19240
0	54619	44310	19230
0	54625	44310	19220
0	54631	44310	19210
0	54637	44310	19200
0	54643	44310	19190
0	54649	44310	19180
0	54655	44310	19170
0	54661	44310	19160
0	54667	44310	19150
0	54673	44310	19140
0	54679	44310	19130
0	54685	44310	19120
0	54691	44310	19110
0	54697	44310	19100
0	54703	44310	19090
0	54709	44310	19080
0	54715	44310	19070
0	54721	44310	19060
0	54727	44310	19050
0	54733	44310	19040
0	54739	44310	19030
0	54745	44310	19020
0	54751	44310	19010
0	54757	44310	19000
0	54763	44310	18990
0	54769	44310	18980
0	54775	44310	18970
0	54781	44310	18960
0	54787	44310	18950
0	54793	44310	18940
0	54799	44310	18930
0	54805	44310	18920
0	54811	44310	18910
0	54817	44310	18900
0	54823	44310	18890
0	54829	44310	18880
0	54835	44310	18870
0	54841	44310	18860
0	54847	44310	18850
0	54853	44310	18840
0	54859	44310	18830
0	54865	44310	18820
0	54871	44310	18810
0	54877	44310	18800
0	54883	44310	18790
0	54889	44310	18780
0	54895	44310	18770
0	54901	44310	18760
0	54907	44310	18750
0	54913	44310	18740
0	54919	44310	18730
0	54925	44310	18720
0	54931	44310	18710
0	54937	44310	18700
0	54943	44310	18690
0	54949	44310	18680
0	54955	44310	18670
0	54961	44310	18660
0	54967	44310	18650
0	54973	44310	18640
0	54979	44310	18630
0	54985	44310	18620
0	54991	44310	18610
0	54997	44310	18600
0	55003	44310	18590
0	55009	44310	18580
0	55015	44310	18570
0	55021	44310	18560
0	55027	44310	18550
0	55033	44310	18540
0	55039	44310	18530
0	55045	44310	18520
0	55051	44310	18510
0	55057	44310	18500
0	55063	44310	18490
0	55069	44310	18480
0	55075	44310	18470
0	55081	44310	18460
0	55087	44310	18450
0	55093	44310	18440
0	55099	44310	18430
0	55105	44310	18420
0	55111	44310	18410
0	55117	44310	18400
0	55123	44310	18390
0	55129	44310	18380
0	55135	44310	18370
0	55141	44310	18360
0	55147	44310	18350
0	55153	44310	18340
0	55159	44310	18330
0	55165	44310	18320
0	55171	44310	18310
0	55177	44310	18300
0	55183	44310	18290
0	55189	44310	18280
0	55195	44310	18270
0	55201	44310	18260
0	55207	44310	18250
0	55213	44310	18240
0	55219	44310	18230
0	55225	44310	18220
0	55231	44310	18210
0	55237	44310	18200
0	55243	44310	18190
0	55249	44310	18180
0	55255	44310	18170
0	55261	44310	18160
0	55267	44310	18150
0	55273	44310	18140
0	55279	44310	18130
0	55285	44310	18120
0	55291	44310	18110
0	55297	44310	18100
0	55303	44310	18090
0	55309	44310	18080
0	55315	44310	18070
0	55321	44310	18060
0	55327	44310	18050
0	55333	44310	18040
0	55339	44310	18030
0	55345	44310	18020
0	55351	44310	18010
0	55357	44310	18000
0	55363	44310	17990
0	55369	44310	17980
0	55375	44310	17970
0	55381	44310	17960
0	55387	44310	17950
0	55393	44310	17940
0	55399	44310	17930
0	55405	44310	17920
0	55411	44310	17910
0	55417	44310	17900
0	55423	44310	17890
0	55429	44310	17880
0	55435	44310	17870
0	55441	44310	17860
0	55447	44310	17850
0	55453	44310	17840
0	55459	44310	17830
0	55465	44310	17820
0	55471	44310	17810
0	55477	44310	17800
0	55483	44310	17790
0	55489	44310	17780
0	55495	44310	17770
0	55501	44310	17760
0	55507	44310	17750
0	55513	44310	17740
0	55519	44310	17730
0	55525	44310	17720
0	55531	44310	17710
0	55537	44310	17700
0	55543	44310	17690
0	55549	44310	17680
0	55555	44310	17670
0	55561	44310	17660
0	55567	44310	17650
0	55573	44310	17640
0	55579	44310	17630
0	55585	44310	17620
0	55591	44310	17610
0	55597	44310	17600
0	55603	44310	17590
0	55609	44310	17580
0	55615	44310	17570
0	55621	44310	17560
0	55627	44310	17550
0	55633	44310	17540
0	55639	44310	17530
0	55645	44310	17520
0	55651	44310	17510
0	55657	44310	17500
0	55663	44310	17490
0	55669	44310	17480
0	55675	44310	17470
0	55681	44310	17460
0	55687	44310	17450
0	55693	44310	17440
0	55699	44310	17430
0	55705	44310	17420
0	55711	44310	17410
0	55717	44310	17400
0	55723	44310	17390
0	55729	44310	17380
0	55735	44310	17370
0	55741	44310	17360
0	55747	44310	17350
0	55753	44310	17340
0	55759	44310	17330
0	55765	44310	17320
0	55771	44310	17310
0	55777	44310	17300
0	55783	44310	17290
0	55789	44310	17280
0	55795	44310	17270
0	55801	44310	17260
0	55807	44310	17250
0	55813	44310	17240
0	55819	44310	17230
0	55825	44310	17220
0	55831	44310	17210
0	55837	44310	17200
0	55843	44310	17190
0	55849	44310	17180
0	55855	44310	17170
0	55861	44310	17160
0	55867	44310	17150
0	55873	44310	17140
0	55879	44310	17130
0	55885	44310	17120
0	55891	44310	17110
0	55897	44310	17100
0	55903	44310	17090
0	55909	44310	17080
0	55915	44310	17070
0	55921	44310	17060
0	55927	44310	17050
0	55933	44310	17040
0	55939	44310	17030
0	55945	44310	17020
0	55951	44310	17010
0	55957	44310	17000
0	55963	44310	16990
0	55969	44310	16980
0	55975	44310	16970
0	55981	44310	16960
0	55987	44310	16950
0	55993	44310	16940
0	55999	44310	16930
0	56005	44310	16920
0	56011	44310	16910
0	56017	44310	16900
0	56023	44310	16890
0	56029	44310	16880
0	56035	44310	16870
0	56041	44310	16860
0	56047	44310	16850
0	56053	44310	16840
0	56059	44310	16830
0	56065	44310	16820
0	56071	44310	16810
0	56077	44310	16800
0	56083	44310	16790
0	56089	44310	16780
0	56095	44310	16770
0	56101	44310	16760
0	56107	44310	16750
0	56113	44310	16740
0	56119	44310	16730
0	56125	44310	16720
0	56131	44310	16710
0	56137	44310	16700
0	56143	44310	16690
0	56149	44310	16680
0	56155	44310	16670
0	56161	44310	16660
0	56167	44310	16650
0	56173	44310	16640
0	56179	44310	16630
0	56185	44310	16620
0	56191	44310	16610
0	56197	44310	16600
0	56203	44310	16590
0	56209	44310	16580
0	56215	44310	16570
0	56221	44310	16560
0	56227	44310	16550
0	56233	44310	16540
0	56239	44310	16530
0	56245	44310	16520
0	56251	44310	16510
0	56257	44310	16500
0	56263	44310	16490
0	56269	44310	16480
0	56275	44310	16470
0	56281	44310	16460
0	56287	44310	16450
0	56293	44310	16440
0	56299	44310	16430
0	56305	44310	16420
0	56311	44310	16410
0	56317	44310	16400
0	56323	44310	16390
0	56329	44310	16380
0	56335	44310	16370
0	56341	44310	16360
0	56347	44310	16350
0	56353	44310	16340
0	56359	44310	16330
0	56365	44310	16320
0	56371	44310	16310
0	56377	44310	16300
0	56383	44310	16290
0	56389	44310	16280
0	56395	44310	16270
0	56401	44310	16260
0	56407	44310	16250
0	56413	44310	16240
0	56419	44310	16230
0	56425	44310	16220
0	56431	44310	16210
0	56437	44310	16200
0	56443	44310	16190
0	56449	44310	16180
0	56455	44310	16170
0	56461	44310	16160
0	56467	44310	16150
0	56473	44310	16140
0	56479	44310	16130
0	56485	44310	16120
0	56491	44310	16110
0	56497	44310	16100
0	56503	44310	16090
0	56509	44310	16080
0	56515	44310	16070
0	56521	44310	16060
0	56527	44310	16050
0	56533	44310	16040
0	56539	44310	16030
0	56545	44310	16020
0	56551	44310	16010
0	56557	44310	16000
0	56563	44310	15990
0	56569	44310	15980
0	56575	44310	15970
0	56581	44310	15960
0	56587	44310	15950
0	56593	44310	15940
0	56599	44310	15930
0	56605	44310	15920
0	56611	44310	15910
0	56617	44310	15900
0	56623	44310	15890
0	56629	44310	15880
0	56635	44310	15870
0	56641	44310	15860
0	56647	44310	15850
0	56653	44310	15840
0	56659	44310	15830
0	56665	44310	15820
0	56671	44310	15810
0	56677	44310	15800
0	56683	44310	15790
0	56689	44310	15780
0	56695	44310	15770
0	56701	44310	15760
0	56707	44310	15750
0	56713	44310	15740
0	56719	44310	15730
0	56725	44310	15720
0	56731	44310	15710
0	56737	44310	15700
0	56743	44310	15690
0	56749	44310	15680
0	56755	44310	15670
0	56761	44310	15660
0	56767	44310	15650
0	56773	44310	15640
0	56779	44310	15630
0	56785	44310	15620
0	56791	44310	15610
0	56797	44310	15600
0	56803	44310	15590
0	56809	44310	15580
0	56815	44310	15570
0	56821	44310	15560
0	56827	44310	15550
0	56833	44310	15540
0	56839	44310	15530
0	56845	44310	15520
0	56851	44310	15510
0	56857	44310	15500
0	56863	44310	15490
0	56869	44310	15480
0	56875	44310	15470
0	56881	44310	15460
0	56887	44310	15450
0	56893	44310	15440
0	56899	44310	15430
0	56905	44310	15420
0	56911	44310	15410
0	56917	44310	15400
0	56923	44310	15390
0	56929	44310	15380
0	56935	44310	15370
0	56941	44310	15360
0	56947	44310	15350
0	56953	44310	15340
0	56959	44310	15330
0	56965	44310	15320
0	56971	44310	15310
0	56977	44310	15300
0	56983	44310	15290
0	56989	44310	15280
0	56995	44310	15270
0	57001	44310	15260
0	57007	44310	15250
0	57013	44310	15240
0	57019	44310	15230
0	57025	44310	15220
0	57031	44310	15210
0	57037	44310	15200
0	57043	44310	15190
0	57049	44310	15180
0	57055	44310	15170
0	57061	44310	15160
0	57067	44310	15150
0	57073	44310	15140
0	57079	44310	15130
0	57085	44310	15120
0	57091	44310	15110
0	57097	44310	15100
0	57103	44310	15090
0	57109	44310	15080
0	57115	44310	15070
0	57121	44310	15060
0	57127	44310	15050
0	57133	44310	15040
0	57139	44310	15030
0	57145	44310	15020
0	57151	44310	15010
0	57157	44310	15000
0	57163	44310	14990
0	57169	44310	14980
0	57175	44310	14970
0	57181	44310	14960
0	57187	44310	14950
0	57193	44310	14940
0	57199	44310	14930
0	57205	44310	14920
0	57211	44310	14910
0	57217	44310	14900
0	57223	44310	14890
0	57229	44310	14880
0	57235	44310	14870
0	57241	44310	14860
0	57247	44310	14850
0	57253	44310	14840
0	57259	44310	14830
0	57265	44310	14820
0	57271	44310	14810
0	57277	44310	14800
0	57283	44310	14790
0	57289	44310	14780
0	57295	44310	14770
0	57301	44310	14760
0	57307	44310	14750
0	57313	44310	14740
0	57319	44310	14730
0	57325	44310	14720
0	57331	44310	14710
0	57337	44310	14700
0	57343	44310	14690
0	57349	44310	14680
0	57355	44310	14670
0	57361	44310	14660
0	57367	44310	14650
0	57373	44310	14640
0	57379	44310	14630
0	57385	44310	14620
0	57391	44310	14610
0	57397	44310	14600
0	57403	44310	14590
0	57409	44310	14580
0	57415	44310	14570
0	57421	44310	14560
0	57427	44310	14550
0	57433	44310	14540
0	57439	44310	14530
0	57445	44310	14520
0	57451	44310	14510
0	57457	44310	14500
0	57463	44310	14490
0	57469	44310	14480
0	57475	44310	14470
0	57481	44310	14460
0	57487	44310	14450
0	57493	44310	14440
0	57499	44310	14430
0	57505	44310	14420
0	57511	44310	14410
0	57517	44310	14400
0	57523	44310	14390
0	57529	44310	14380
0	57535	44310	14370
0	57541	44310	14360
0	57547	44310	14350
0	57553	44310	14340
0	57559	44310	14330
0	57565	44310	14320
0	57571	44310	14310
0	57577	44310	14300
0	57583	44310	14290
0	57589	44310	14280
0	57595	44310	14270
0	57601	44310	14260
0	57607	44310	14250
0	57613	44310	14240
0	57619	44310	14230
0	57625	44310	14220
0	57631	44310	14210
0	57637	44310	14200
0	57643	44310	14190
0	57649	44310	14180
0	57655	44310	14170
0	57661	44310	14160
0	57667	44310	14150
0	57673	44310	14140
0	57679	44310	14130
0	57685	44310	14120
0	57691	44310	14110
0	57697	44310	14100
0	57703	44310	14090
0	57709	44310	14080
0	57715	44310	14070
0	57721	44310	14060
0	97198	64067	33807
0	97204	64067	33797
0	97210	64067	33787
0	97216	64067	33777
0	97222	64067	33767
0	97228	64067	33757
0	97234	64067	33747
0	97240	64067	33737
0	97246	64067	33727
0	97252	64067	33717
0	97258	64067	33707
0	97264	64067	33697
0	97270	64067	33687
0	97276	64067	33677
0	97282	64067	33667
0	97288	64067	33657
0	97294	64067	33647
0	97300	64067	33637
0	97306	64067	33627
0	97312	64067	33617
0	97318	64067	33607
0	97324	64067	33597
0	97330	64067	33587
0	97336	64067	33577
0	97342	64067	33567
0	97348	64067	33557
0	97354	64067	33547
0	97360	64067	33537
0	97366	64067	33527
0	97372	64067	33517
0	97378	64067	33507
0	97384	64067	33497
0	97390	64067	33487
0	97396	64067	33477
0	97402	64067	33467
0	97408	64067	33457
0	97414	64067	33447
0	97420	64067	33437
0	97426	64067	33427
0	97432	64067	33417
0	97438	64067	33407
0	97444	64067	33397
0	97450	64067	33387
0	97456	64067	33377
0	97462	64067	33367
0	97468	64067	33357
0	97474	64067	33347
0	97480	64067	33337
0	97486	64067	33327
0	97492	64067	33317
0	97498	64067	33307
0	97504	64067	33297
0	97510	64067	33287
0	97516	64067	33277
0	97522	64067	33267
0	97528	64067	33257
0	97534	64067	33247
0	97540	64067	33237
0	97546	64067	33227
0	97552	64067	33217
0	97558	64067	33207
0	97564	64067	33197
0	97570	64067	33187
0	97576	64067	33177
0	97582	64067	33167
0	97588	64067	33157
0	97594	64067	33147
0	97600	64067	33137
0	97606	64067	33127
0	97612	64067	33117
0	97618	64067	33107
0	97624	64067	33097
0	97630	64067	33087
0	97636	64067	33077
0	97642	64067	33067
0	97648	64067	33057
0	97654	64067	33047
0	97660	64067	33037
0	97666	64067	33027
0	97672	64067	33017
0	97678	64067	33007
0	97684	64067	32997
0	97690	64067	32987
0	97696	64067	32977
0	97702	64067	32967
0	97708	64067	32957
0	97714	64067	32947
0	97720	64067	32937
0	97726	64067	32927
0	97732	64067	32917
0	97738	64067	32907
0	97744	64067	32897
0	97750	64067	32887
0	97756	64067	32877
0	97762	64067	32867
0	97768	64067	32857
0	97774	64067	32847
0	97780	64067	32837
0	97786	64067	32827
0	97792	64067	32817
0	97798	64067	32807
0	97804	64067	32797
0	97810	64067	32787
0	97816	64067	32777
0	97822	64067	32767
0	97828	64067	32757
0	97834	64067	32747
0	97840	64067	32737
0	97846	64067	32727
0	97852	64067	32717
0	97858	64067	32707
0	97864	64067	32697
0	97870	64067	32687
0	97876	64067	32677
0	97882	64067	32667
0	97888	64067	32657
0	97894	64067	32647
0	97900	64067	32637
0	97906	64067	32627
0	97912	64067	32617
0	97918	64067	32607
0	97924	64067	32597
0	97930	64067	32587
0	97936	64067	32577
0	97942	64067	32567
0	97948	64067	32557
0	97954	64067	32547
0	97960	64067	32537
0	97966	64067	32527
0	97972	64067	32517
0	97978	64067	32507
0	97984	64067	32497
0	97990	64067	32487
0	97996	64067	32477
0	98002	64067	32467
0	98008	64067	32457
0	98014	64067	32447
0	98020	64067	32437
0	98026	64067	32427
0	98032	64067	32417
0	98038	64067	32407
0	98044	64067	32397
0	98050	64067	32387
0	98056	64067	32377
0	98062	64067	32367
0	98068	64067	32357
0	98074	64067	32347
0	98080	64067	32337
0	98086	64067	32327
0	98092	64067	32317
0	98098	64067	32307
0	98104	64067	32297
0	98110	64067	32287
0	98116	64067	32277
0	98122	64067	32267
0	98128	64067	32257
0	98134	64067	32247
0	98140	64067	32237
0	98146	64067	32227
0	98152	64067	32217
0	98158	64067	32207
0	98164	64067	32197
0	98170	64067	32187
0	98176	64067	32177
0	98182	64067	32167
0	98188	64067	32157
0	98194	64067	32147
0	98200	64067	32137
0	98206	64067	32127
0	98212	64067	32117
0	98218	64067	32107
0	98224	64067	32097
0	98230	64067	32087
0	98236	64067	32077
0	98242	64067	32067
0	98248	64067	32057
0	98254	64067	32047
0	98260	64067	32037
0	98266	64067	32027
0	98272	64067	32017
0	98278	64067	32007
0	98284	64067	31997
0	98290	64067	31987
0	98296	64067	31977
0	98302	64067	31967
0	98308	64067	31957
0	98314	64067	31947
0	98320	64067	31937
0	98326	64067	31927
0	98332	64067	31917
0	98338	64067	31907
0	98344	64067	31897
0	98350	64067	31887
0	98356	64067	31877
0	98362	64067	31867
0	98368	64067	31857
0	98374	64067	31847
0	98380	64067	31837
0	98386	64067	31827
0	98392	64067	31817
0	98398	64067	31807
0	98404	64067	31797
0	98410	64067	31787
0	98416	64067	31777
0	98422	64067	31767
0	98428	64067	31757
0	98434	64067	31747
0	98440	64067	31737
0	98446	64067	31727
0	98452	64067	31717
0	98458	64067	31707
0	98464	64067	31697
0	98470	64067	31687
0	98476	64067	31677
0	98482	64067	31667
0	98488	64067	31657
0	98494	64067	31647
0	98500	64067	31637
0	98506	64067	31627
0	98512	64067	31617
0	98518	64067	31607
0	98524	64067	31597
0	98530	64067	31587
0	98536	64067	31577
0	98542	64067	31567
0	98548	64067	31557
0	98554	64067	31547
0	98560	64067	31537
0	98566	64067	31527
0	98572	64067	31517
0	98578	64067	31507
0	98584	64067	31497
0	98590	64067	31487
0	98596	64067	31477
0	98602	64067	31467
0	98608	64067	31457
0	98614	64067	31447
0	98620	64067	31437
0	98626	64067	31427
0	98632	64067	31417
0	98638	64067	31407
0	98644	64067	31397
0	98650	64067	31387
0	98656	64067	31377
0	98662	64067	31367
0	98668	64067	31357
0	98674	64067	31347
0	98680	64067	31337
0	98686	64067	31327
0	98692	64067	31317
0	98698	64067	31307
0	98704	64067	31297
0	98710	64067	31287
0	98716	64067	31277
0	98722	64067	31267
0	98728	64067	31257
0	98734	64067	31247
0	98740	64067	31237
0	98746	64067	31227
0	98752	64067	31217
0	98758	64067	31207
0	98764	64067	31197
0	98770	64067	31187
0	98776	64067	31177
0	98782	64067	31167
0	98788	64067	31157
0	98794	64067	31147
0	98800	64067	31137
0	98806	64067	31127
0	98812	64067	31117
0	98818	64067	31107
0	98824	64067	31097
0	98830	64067	31087
0	98836	64067	31077
0	98842	64067	31067
0	98848	64067	31057
0	98854	64067	31047
0	98860	64067	31037
0	98866	64067	31027
0	98872	64067	31017
0	98878	64067	31007
0	98884	64067	30997
0	98890	64067	30987
0	98896	64067	30977
0	98902	64067	30967
0	98908	64067	30957
0	98914	64067	30947
0	98920	64067	30937
0	98926	64067	30927
0	98932	64067	30917
0	98938	64067	30907
0	98944	64067	30897
0	98950	64067	30887
0	98956	64067	30877
0	98962	64067	30867
0	98968	64067	30857
0	98974	64067	30847
0	98980	64067	30837
0	98986	64067	30827
0	98992	64067	30817
0	98998	64067	30807
0	99004	64067	30797
0	99010	64067	30787
0	99016	64067	30777
0	99022	64067	30767
0	99028	64067	30757
0	99034	64067	30747
0	99040	64067	30737
0	99046	64067	30727
0	99052	64067	30717
0	99058	64067	30707
0	99064	64067	30697
0	99070	64067	30687
0	99076	64067	30677
0	99082	64067	30667
0	99088	64067	30657
0	99094	64067	30647
0	99100	64067	30637
0	99106	64067	30627
0	99112	64067	30617
0	99118	64067	30607
0	99124	64067	30597
0	99130	64067	30587
0	99136	64067	30577
0	99142	64067	30567
0	99148	64067	30557
0	99154	64067	30547
0	99160	64067	30537
0	99166	64067	30527
0	99172	64067	30517
0	99178	64067	30507
0	99184	64067	30497
0	99190	64067	30487
0	99196	64067	30477
0	99202	64067	30467
0	99208	64067	30457
0	99214	64067	30447
0	99220	64067	30437
0	99226	64067	30427
0	99232	64067	30417
0	99238	64067	30407
0	99244	64067	30397
0	99250	64067	30387
0	99256	64067	30377
0	99262	64067	30367
0	99268	64067	30357
0	99274	64067	30347
0	99280	64067	30337
0	99286	64067	30327
0	99292	64067	30317
0	99298	64067	30307
0	99304	64067	30297
0	99310	64067	30287
0	99316	64067	30277
0	99322	64067	30267
0	99328	64067	30257
0	99334	64067	30247
0	99340	64067	30237
0	99346	64067	30227
0	99352	64067	30217
0	99358	64067	30207
0	99364	64067	30197
0	99370	64067	30187
0	99376	64067	30177
0	99382	64067	30167
0	99388	64067	30157
0	99394	64067	30147
0	99400	64067	30137
0	99406	64067	30127
0	99412	64067	30117
0	99418	64067	30107
0	99424	64067	30097
0	99430	64067	30087
0	99436	64067	30077
0	99442	64067	30067
0	99448	64067	30057
0	99454	64067	30047
0	99460	64067	30037
0	99466	64067	30027
0	99472	64067	30017
0	99478	64067	30007
0	99484	64067	29997
0	99490	64067	29987
0	99496	64067	29977
0	99502	64067	29967
0	99508	64067	29957
0	99514	64067	29947
0	99520	64067	29937
0	99526	64067	29927
0	99532	64067	29917
0	99538	64067	29907
0	99544	64067	29897
0	99550	64067	29887
0	99556	64067	29877
0	99562	64067	29867
0	99568	64067	29857
0	99574	64067	29847
0	99580	64067	29837
0	99586	64067	29827
0	99592	64067	29817
0	99598	64067	29807
0	99604	64067	29797
0	99610	64067	29787
0	99616	64067	29777
0	99622	64067	29767
0	99628	64067	29757
0	99634	64067	29747
0	99640	64067	29737
0	99646	64067	29727
0	99652	64067	29717
0	99658	64067	29707
0	99664	64067	29697
0	99670	64067	29687
0	99676	64067	29677
0	99682	64067	29667
0	99688	64067	29657
0	99694	64067	29647
0	99700	64067	29637
0	99706	64067	29627
0	99712	64067	29617
0	99718	64067	29607
0	99724	64067	29597
0	99730	64067	29587
0	99736	64067	29577
0	99742	64067	29567
0	99748	64067	29557
0	99754	64067	29547
0	99760	64067	29537
0	99766	64067	29527
0	99772	64067	29517
0	99778	64067	29507
0	99784	64067	29497
0	99790	64067	29487
0	99796	64067	29477
0	99802	64067	29467
0	99808	64067	29457
0	99814	64067	29447
0	99820	64067	29437
0	99826	64067	29427
0	99832	64067	29417
0	99838	64067	29407
0	99844	64067	29397
0	99850	64067	29387
0	99856	64067	29377
0	99862	64067	29367
0	99868	64067	29357
0	99874	64067	29347
0	99880	64067	29337
0	99886	64067	29327
0	99892	64067	29317
0	99898	64067	29307
0	99904	64067	29297
0	99910	64067	29287
0	99916	64067	29277
0	99922	64067	29267
0	99928	64067	29257
0	99934	64067	29247
0	99940	64067	29237
0	99946	64067	29227
0	99952	64067	29217
0	99958	64067	29207
0	99964	64067	29197
0	99970	64067	29187
0	99976	64067	29177
0	99982	64067	29167
0	99988	64067	29157
0	99994	64067	29147
0	100000	64067	29137
0	100006	64067	29127
0	100012	64067	29117
0	100018	64067	29107
0	100024	64067	29097
0	100030	64067	29087
0	100036	64067	29077
0	100042	64067	29067
0	100048	64067	29057
0	100054	64067	29047
0	100060	64067	29037
0	100066	64067	29027
0	100072	64067	29017
0	100078	64067	29007
0	100084	64067	28997
0	100090	64067	28987
0	100096	64067	28977
0	100102	64067	28967
0	100108	64067	28957
0	100114	64067	28947
0	100120	64067	28937
0	100126	64067	28927
0	100132	64067	28917
0	100138	64067	28907
0	100144	64067	28897
0	100150	64067	28887
0	100156	64067	28877
0	100162	64067	28867
0	100168	64067	28857
0	100174	64067	28847
0	100180	64067	28837
0	100186	64067	28827
0	100192	64067	28817
0	100198	64067	28807
0	100204	64067	28797
0	100210	64067	28787
0	100216	64067	28777
0	100222	64067	28767
0	100228	64067	28757
0	100234	64067	28747
0	100240	64067	28737
0	100246	64067	28727
0	100252	64067	28717
0	100258	64067	28707
0	100264	64067	28697
0	100270	64067	28687
0	100276	64067	28677
0	100282	64067	28667
0	100288	64067	28657
0	100294	64067	28647
0	100300	64067	28637
0	100306	64067	28627
0	100312	64067	28617
0	100318	64067	28607
0	100324	64067	28597
0	100330	64067	28587
0	100336	64067	28577
0	100342	64067	28567
0	100348	64067	28557
0	100354	64067	28547
0	100360	64067	28537
0	100366	64067	28527
0	100372	64067	28517
0	100378	64067	28507
0	100384	64067	28497
0	100390	64067	28487
0	100396	64067	28477
0	100402	64067	28467
0	100408	64067	28457
0	100414	64067	28447
0	100420	64067	28437
0	100426	64067	28427
0	100432	64067	28417
0	100438	64067	28407
0	100444	64067	28397
0	100450	64067	28387
0	100456	64067	28377
0	100462	64067	28367
0	100468	64067	28357
0	100474	64067	28347
0	100480	64067	28337
0	100486	64067	28327
0	100492	64067	28317
0	100498	64067	28307
0	100504	64067	28297
0	100510	64067	28287
0	100516	64067	28277
0	100522	64067	28267
0	100528	64067	28257
0	100534	64067	28247
0	100540	64067	28237
0	100546	64067	28227
0	100552	64067	28217
0	100558	64067	28207
0	100564	64067	28197
0	100570	64067	28187
0	100576	64067	28177
0	100582	64067	28167
0	100588	64067	28157
0	100594	64067	28147
0	100600	64067	28137
0	100606	64067	28127
0	100612	64067	28117
0	100618	64067	28107
0	100624	64067	28097
0	100630	64067	28087
0	100636	64067	28077
0	100642	64067	28067
0	100648	64067	28057
0	100654	64067	28047
0	100660	64067	28037
0	100666	64067	28027
0	100672	64067	28017
0	100678	64067	28007
0	100684	64067	27997
0	100690	64067	27987
0	100696	64067	27977
0	100702	64067	27967
0	100708	64067	27957
0	100714	64067	27947
0	100720	64067	27937
0	100726	64067	27927
0	100732	64067	27917
0	100738	64067	27907
0	100744	64067	27897
0	100750	64067	27887
0	100756	64067	27877
0	100762	64067	27867
0	100768	64067	27857
0	100774	64067	27847
0	100780	64067	27837
0	100786	64067	27827
0	100792	64067	27817
0	100798	64067	27807
0	100804	64067	27797
0	100810	64067	27787
0	100816	64067	27777
0	100822	64067	27767
0	100828	64067	27757
0	100834	64067	27747
0	100840	64067	27737
0	100846	64067	27727
0	100852	64067	27717
0	100858	64067	27707
0	100864	64067	27697
0	100870	64067	27687
0	100876	64067	27677
0	100882	64067	27667
0	100888	64067	27657
0	100894	64067	27647
0	100900	64067	27637
0	100906	64067	27627
0	100912	64067	27617
0	100918	64067	27607
0	100924	64067	27597
0	100930	64067	27587
0	100936	64067	27577
0	100942	64067	27567
0	100948	64067	27557
0	100954	64067	27547
0	100960	64067	27537
0	100966	64067	27527
0	100972	64067	27517
0	100978	64067	27507
0	100984	64067	27497
0	100990	64067	27487
0	100996	64067	27477
0	101002	64067	27467
0	101008	64067	27457
0	101014	64067	27447
0	101020	64067	27437
0	101026	64067	27427
0	101032	64067	27417
0	101038	64067	27407
0	101044	64067	27397
0	101050	64067	27387
0	101056	64067	27377
0	101062	64067	27367
0	101068	64067	27357
0	101074	64067	27347
0	101080	64067	27337
0	101086	64067	27327
0	101092	64067	27317
0	101098	64067	27307
0	101104	64067	27297
0	101110	64067	27287
0	101116	64067	27277
0	101122	64067	27267
0	101128	64067	27257
0	101134	64067	27247
0	101140	64067	27237
0	101146	64067	27227
0	101152	64067	27217
0	101158	64067	27207
0	101164	64067	27197
0	101170	64067	27187
0	101176	64067	27177
0	101182	64067	27167
0	101188	64067	27157
0	101194	64067	27147
0	101200	64067	27137
0	101206	64067	27127
0	101212	64067	27117
0	101218	64067	27107
0	101224	64067	27097
0	101230	64067	27087
0	101236	64067	27077
0	101242	64067	27067
0	101248	64067	27057
0	101254	64067	27047
0	101260	64067	27037
0	101266	64067	27027
0	101272	64067	27017
0	101278	64067	27007
0	101284	64067	26997
0	101290	64067	26987
0	101296	64067	26977
0	101302	64067	26967
0	101308	64067	26957
0	101314	64067	26947
0	101320	64067	26937
0	101326	64067	26927
0	101332	64067	26917
0	101338	64067	26907
0	101344	64067	26897
0	101350	64067	26887
0	101356	64067	26877
0	101362	64067	26867
0	101368	64067	26857
0	101374	64067	26847
0	101380	64067	26837
0	101386	64067	26827
0	101392	64067	26817
0	101398	64067	26807
0	101404	64067	26797
0	101410	64067	26787
0	101416	64067	26777
0	101422	64067	26767
0	101428	64067	26757
0	101434	64067	26747
0	101440	64067	26737
0	101446	64067	26727
0	101452	64067	26717
0	101458	64067	26707
0	101464	64067	26697
0	101470	64067	26687
0	101476	64067	26677
0	101482	64067	26667
0	101488	64067	26657
0	101494	64067	26647
0	101500	64067	26637
0	101506	64067	26627
0	101512	64067	26617
0	101518	64067	26607
0	101524	64067	26597
0	101530	64067	26587
0	101536	64067	26577
0	101542	64067	26567
0	101548	64067	26557
0	101554	64067	26547
0	101560	64067	26537
0	101566	64067	26527
0	101572	64067	26517
0	101578	64067	26507
0	101584	64067	26497
0	101590	64067	26487
0	101596	64067	26477
0	101602	64067	26467
0	101608	64067	26457
0	101614	64067	26447
0	101620	64067	26437
0	101626	64067	26427
0	101632	64067	26417
0	101638	64067	26407
0	101644	64067	26397
0	101650	64067	26387
0	101656	64067	26377
0	101662	64067	26367
0	101668	64067	26357
0	101674	64067	26347
0	101680	64067	26337
0	101686	64067	26327
0	101692	64067	26317
0	101698	64067	26307
0	101704	64067	26297
0	101710	64067	26287
0	101716	64067	26277
0	101722	64067	26267
0	101728	64067	26257
0	101734	64067	26247
0	101740	64067	26237
0	101746	64067	26227
0	101752	64067	26217
0	101758	64067	26207
0	101764	64067	26197
0	101770	64067	26187
0	101776	64067	26177
0	101782	64067	26167
0	101788	64067	26157
0	101794	64067	26147
0	101800	64067	26137
0	101806	64067	26127
0	101812	64067	26117
0	101818	64067	26107
0	101824	64067	26097
0	101830	64067	26087
0	101836	64067	26077
0	101842	64067	26067
0	101848	64067	26057
0	101854	64067	26047
0	101860	64067	26037
0	101866	64067	26027
0	101872	64067	26017
0	101878	64067	26007
0	101884	64067	25997
0	101890	64067	25987
0	101896	64067	25977
0	101902	64067	25967
0	101908	64067	25957
0	101914	64067	25947
0	101920	64067	25937
0	101926	64067	25927
0	101932	64067	25917
0	101938	64067	25907
0	101944	64067	25897
0	101950	64067	25887
0	101956	64067	25877
0	101962	64067	25867
0	101968	64067	25857
0	101974	64067	25847
0	101980	64067	25837
0	101986	64067	25827
0	101992	64067	25817
0	101998	64067	25807
0	102004	64067	25797
0	102010	64067	25787
0	102016	64067	25777
0	102022	64067	25767
0	102028	64067	25757
0	102034	64067	25747
0	102040	64067	25737
0	102046	64067	25727
0	102052	64067	25717
0	102058	64067	25707
0	102064	64067	25697
0	102070	64067	25687
0	102076	64067	25677
0	102082	64067	25667
0	102088	64067	25657
0	102094	64067	25647
0	102100	64067	25637
0	102106	64067	25627
0	102112	64067	25617
0	102118	64067	25607
0	102124	64067	25597
0	102130	64067	25587
0	102136	64067	25577
0	102142	64067	25567
0	102148	64067	25557
0	102154	64067	25547
0	102160	64067	25537
0	102166	64067	25527
0	102172	64067	25517
0	102178	64067	25507
0	102184	64067	25497
0	102190	64067	25487
0	102196	64067	25477
0	102202	64067	25467
0	102208	64067	25457
0	102214	64067	25447
0	102220	64067	25437
0	102226	64067	25427
0	102232	64067	25417
0	102238	64067	25407
0	102244	64067	25397
0	102250	64067	25387
0	102256	64067	25377
0	102262	64067	25367
0	102268	64067	25357
0	102274	64067	25347
0	102280	64067	25337
0	102286	64067	25327
0	102292	64067	25317
0	102298	64067	25307
0	102304	64067	25297
0	102310	64067	25287
[...]
0	139468	71981	3481
0	139474	71981	3471
0	139480	71981	3461
0	139486	71981	3451
0	139492	71981	3441
0	139498	71981	3431
0	139504	71981	3421
0	139510	71981	3411
0	139516	71981	3401
0	139522	71981	3391
0	139528	71981	3381
0	139534	71981	3371
0	139540	71981	3361
0	139546	71981	3351
0	139552	71981	3341
0	139558	71981	3331
0	139564	71981	3321
0	139570	71981	3311
0	139576	71981	3301
0	139582	71981	3291
0	139588	71981	3281
0	139594	71981	3271
0	139600	71981	3261
0	139606	71981	3251
0	139612	71981	3241
0	139618	71981	3231
0	139624	71981	3221
0	139630	71981	3211
0	139636	71981	3201
0	139642	71981	3191
0	139648	71981	3181
0	139654	71981	3171
0	139660	71981	3161
0	139666	71981	3151
0	139672	71981	3141
0	139678	71981	3131
0	139684	71981	3121
0	139690	71981	3111
0	139696	71981	3101
0	139702	71981	3091
0	139708	71981	3081
0	139714	71981	3071
0	139720	71981	3061
0	139726	71981	3051
0	139732	71981	3041
0	139738	71981	3031
0	139744	71981	3021
0	139750	71981	3011
0	139756	71981	3001
0	139762	71981	2991
0	139768	71981	2981
0	139774	71981	2971
0	139780	71981	2961
0	139786	71981	2951
0	139792	71981	2941
0	139798	71981	2931
0	139804	71981	2921
0	139810	71981	6461
0	139816	71981	6451
0	139822	71981	6441
0	139828	71981	6431
0	139834	71981	6421
0	139840	71981	6411
0	139846	71981	6401
0	139852	71981	6391
0	139858	71981	6381
0	139864	71981	6371
0	139870	71981	6361
0	139876	71981	6351
0	139882	71981	6341
0	139888	71981	6331
0	139894	71981	6321
0	139900	71981	6311
0	139906	71981	6301
0	139912	71981	6291
0	139918	71981	6281
0	139924	71981	6271
0	139930	71981	6261
0	139936	71981	6251
0	139942	71981	6241
0	139948	71981	6231
0	139954	71981	6221
0	139960	71981	6211
0	139966	71981	6201
0	139972	71981	6191
0	139978	71981	6181
0	139984	71981	6171
0	139990	71981	6161
0	139996	71981	6151
0	140002	71981	6141
0	140008	71981	6131
0	140014	71981	6121
0	140020	71981	6111
0	140026	71981	6101
0	140032	71981	6091
0	140038	71981	6081
0	140044	71981	6071
0	140050	71981	6061
0	140056	71981	6051
0	140062	71981	6041
0	140068	71981	6031
0	140074	71981	6021
0	140080	71981	6011
0	140086	71981	6001
0	140092	71981	5991
0	140098	71981	5981
0	140104	71981	5971
0	140110	71981	5961
0	140116	71981	5951
0	140122	71981	5941
0	140128	71981	5931
0	140134	71981	5921
0	140140	71981	5911
0	140146	71981	5901
0	140152	71981	5891
0	140158	71981	5881
0	140164	71981	5871
0	140170	71981	5861
0	140176	71981	5851
0	140182	71981	5841
0	140188	71981	5831
0	140194	71981	5821
0	140200	71981	5811
0	140206	71981	5801
0	140212	71981	5791
0	140218	71981	5781
0	140224	71981	5771
0	140230	71981	5761
0	140236	71981	5751
0	140242	71981	5741
0	140248	71981	5731
0	140254	71981	5721
0	140260	71981	5711
0	140266	71981	5701
0	140272	71981	5691
0	140278	71981	5681
0	140284	71981	5671
0	140290	71981	5661
0	140296	71981	5651
0	140302	71981	5641
0	140308	71981	5631
0	140314	71981	5621
0	140320	71981	5611
0	140326	71981	5601
0	140332	71981	5591
0	140338	71981	5581
0	140344	71981	5571
0	140350	71981	5561
0	140356	71981	5551
0	140362	71981	5541
0	140368	71981	5531
0	140374	71981	5521
0	140380	71981	5511
0	140386	71981	5501
0	140392	71981	5491
0	140398	71981	5481
0	140404	71981	5471
0	140410	71981	5461
0	140416	71981	5451
0	140422	71981	5441
0	140428	71981	5431
0	140434	71981	5421
0	140440	71981	5411
0	140446	71981	5401
0	140452	71981	5391
0	140458	71981	5381
0	140464	71981	5371
0	140470	71981	5361
0	140476	71981	5351
0	140482	71981	5341
0	140488	71981	5331
0	140494	71981	5321
0	140500	71981	5311
0	140506	71981	5301
0	140512	71981	5291
0	140518	71981	5281
0	140524	71981	5271
0	140530	71981	5261
0	140536	71981	5251
0	140542	71981	5241
0	140548	71981	5231
0	140554	71981	5221
0	140560	71981	5211
0	140566	71981	5201
0	140572	71981	5191
0	140578	71981	5181
0	140584	71981	5171
0	140590	71981	5161
0	140596	71981	5151
0	140602	71981	5141
0	140608	71981	5131
0	140614	71981	5121
0	140620	71981	5111
0	140626	71981	5101
0	140632	71981	5091
0	140638	71981	5081
0	140644	71981	5071
0	140650	71981	5061
0	140656	71981	5051
0	140662	71981	5041
0	140668	71981	5031
0	140674	71981	5021
0	140680	71981	5011
0	140686	71981	5001
0	140692	71981	4991
0	140698	71981	4981
0	140704	71981	4971
0	140710	71981	4961
0	140716	71981	4951
0	140722	71981	4941
0	140728	71981	4931
0	140734	71981	4921
0	140740	71981	4911
0	140746	71981	4901
0	140752	71981	4891
0	140758	71981	4881
0	140764	71981	4871
0	140770	71981	4861
0	140776	71981	4851
0	140782	71981	4841
0	140788	71981	4831
0	140794	71981	4821
0	140800	71981	4811
0	140806	71981	4801
0	140812	71981	4791
0	140818	71981	4781
0	140824	71981	4771
0	140830	71981	4761
0	140836	71981	4751
0	140842	71981	4741
0	140848	71981	4731
0	140854	71981	4721
0	140860	71981	4711
0	140866	71981	4701
0	140872	71981	4691
0	140878	71981	4681
0	140884	71981	4671
0	140890	71981	4661
0	140896	71981	4651
0	140902	71981	4641
0	140908	71981	4631
0	140914	71981	4621
0	140920	71981	4611
0	140926	71981	4601
0	140932	71981	4591
0	140938	71981	4581
0	140944	71981	4571
0	140950	71981	4561
0	140956	71981	4551
0	140962	71981	4541
0	140968	71981	4531
0	140974	71981	4521
0	140980	71981	4511
0	140986	71981	4501
0	140992	71981	4491
0	140998	71981	4481
0	141004	71981	4471
0	141010	71981	4461
0	141016	71981	4451
0	141022	71981	4441
0	141028	71981	4431
0	141034	71981	4421
0	141040	71981	4411
0	141046	71981	4401
0	141052	71981	4391
0	141058	71981	4381
0	141064	71981	4371
0	141070	71981	4361
0	141076	71981	4351
0	141082	71981	4341
0	141088	71981	4331
0	141094	71981	4321
0	141100	71981	4311
0	141106	71981	4301
0	141112	71981	4291
0	141118	71981	4281
0	141124	71981	4271
0	141130	71981	4261
0	141136	71981	4251
0	141142	71981	4241
0	141148	71981	4231
0	141154	71981	4221
0	141160	71981	4211
0	141166	71981	4201
0	141172	71981	4191
0	141178	71981	4181
0	141184	71981	4171
0	141190	71981	4161
0	141196	71981	4151
0	141202	71981	4141
0	141208	71981	4131
0	141214	71981	4121
0	141220	71981	4111
0	141226	71981	4101
0	141232	71981	4091
0	141238	71981	4081
0	141244	71981	4071
0	141250	71981	4061
0	141256	71981	4051
0	141262	71981	4041
0	141268	71981	4031
0	141274	71981	4021
0	141280	71981	4011
0	141286	71981	4001
0	141292	71981	3991
0	141298	71981	3981
0	141304	71981	3971
0	141310	71981	3961
0	141316	71981	3951
0	141322	71981	3941
0	141328	71981	3931
0	141334	71981	3921
0	141340	71981	3911
0	141346	71981	3901
0	141352	71981	3891
0	141358	71981	3881
0	141364	71981	3871
0	141370	71981	3861
0	141376	71981	3851
0	141382	71981	3841
0	141388	71981	3831
0	141394	71981	3821
0	141400	71981	3811
0	141406	71981	3801
0	141412	71981	3791
0	141418	71981	3781
0	141424	71981	3771
0	141430	71981	3761
0	141436	71981	3751
0	141442	71981	3741
0	141448	71981	3731
0	141454	71981	3721
0	141460	71981	3711
0	141466	71981	3701
0	141472	71981	2911
0	141478	71981	2901
0	141484	71981	2891
0	141490	71981	2881
0	141496	71981	2871
0	141502	71981	2861
0	141508	71981	2851
0	141514	71981	2841
0	141520	71981	2831
0	141526	71981	2821
0	141532	71981	2811
0	141538	71981	2801
0	141544	71981	2791
0	141550	71981	2781
0	141556	71981	2771
0	141562	71981	2761
0	141568	71981	2751
0	141574	71981	2741
0	141580	71981	2731
0	141586	71981	2721
0	141592	71981	2711
0	141598	71981	2701
0	141604	71981	2691
0	141610	71981	2681
0	141616	71981	2671
0	141622	71981	2661
0	141628	71981	2651
0	141634	71981	2641
0	141640	71981	2631
0	141646	71981	2621
0	141652	71981	2611
0	141658	71981	2601
0	141664	71981	2591
0	141670	71981	2581
0	141676	71981	2571
0	141682	71981	2561
0	141688	71981	2551
0	141694	71981	2541
0	141700	71981	2531
0	141706	71981	2521
0	141712	71981	2511
0	141718	71981	2501
0	141724	71981	2491
0	141730	71981	2481
0	141736	71981	2471
0	141742	71981	2461
0	141748	71981	2451
0	141754	71981	2441
0	141760	71981	2431
0	141766	71981	2421
0	141772	71981	2411
0	141778	71981	2401
0	141784	71981	2391
0	141790	71981	2381
0	141796	71981	2371
0	141802	71981	2361
0	141808	71981	2351
0	141814	71981	2341
0	141820	71981	2331
0	141826	71981	2321
0	141832	71981	2311
0	141838	71981	2301
0	141844	71981	2291
0	141850	71981	2281
0	141856	71981	2271
0	141862	71981	2261
0	141868	71981	2251
0	141874	71981	2241
0	141880	71981	2231
0	141886	71981	2221
0	141892	71981	2211
0	141898	71981	2201
0	141904	71981	2191
0	141910	71981	2181
0	141916	71981	2171
0	141922	71981	2161
0	141928	71981	2151
0	141934	71981	2141
0	141940	71981	2131
0	141946	71981	2121
0	141952	71981	2111
0	141958	71981	2101
0	141964	71981	2091
0	141970	71981	2081
0	141976	71981	2071
0	141982	71981	2061
0	141988	71981	2051
0	141994	71981	2041
0	142000	71981	2031
0	142006	71981	2021
0	142012	71981	2011
0	142018	71981	2001
0	142024	71981	1991
0	142030	71981	1981
0	142036	71981	1971
0	142042	71981	1961
0	142048	71981	1951
0	142054	71981	1941
0	142060	71981	1931
0	142066	71981	1921
0	142072	71981	1911
0	142078	71981	1901
0	142084	71981	1891
0	142090	71981	1881
0	142096	71981	1871
0	142102	71981	1861
0	142108	71981	1851
0	142114	71981	1841
0	142120	71981	1831
0	142126	71981	1821
0	142132	71981	1811
0	142138	71981	1801
0	142144	71981	1791
0	142150	71981	1781
0	142156	71981	1771
0	142162	71981	1761
0	142168	71981	1751
0	142174	71981	1741
0	142180	71981	1731
0	142186	71981	1721
0	142192	71981	1711
0	142198	71981	1701
0	142204	71981	1691
0	142210	71981	1681
0	142216	71981	1671
0	142222	71981	1661
0	142228	71981	1651
0	142234	71981	1641
0	142240	71981	1631
0	142246	71981	1621
0	142252	71981	1611
0	142258	71981	1601
0	142264	71981	1591
0	142270	71981	1581
0	142276	71981	1571
0	142282	71981	1561
0	142288	71981	1551
0	142294	71981	1541
0	142300	71981	1531
0	142306	71981	1521
0	142312	71981	1511
0	142318	71981	1501
0	142324	71981	1491
0	142330	71981	1481
0	142336	71981	1471
0	142342	71981	1461
0	142348	71981	1451
0	142354	71981	1441
0	142360	71981	1431
0	142366	71981	1421
0	142372	71981	1411
0	142378	71981	1401
0	142384	71981	1391
0	142390	71981	1381
0	142396	71981	1371
0	142402	71981	1361
0	142408	71981	1351
0	142414	71981	1341
0	142420	71981	1331
0	142426	71981	1321
0	142432	71981	1311
0	142438	71981	1301
0	142444	71981	1291
0	142450	71981	1281
0	142456	71981	1271
0	142462	71981	1261
0	142468	71981	1251
0	142474	71981	1241
0	142480	71981	1231
0	142486	71981	1221
0	142492	71981	1211
0	142498	71981	1201
0	142504	71981	1191
0	142510	71981	1181
0	142516	71981	1171
0	142522	71981	1161
0	142528	71981	1151
0	142534	71981	1141
0	142540	71981	1131
0	142546	71981	1121
0	142552	71981	1111
0	142558	71981	1101
0	142564	71981	1091
0	142570	71981	1081
0	142576	71981	1071
0	142582	71981	1061
0	142588	71981	1051
0	142594	71981	1041
0	142600	71981	1031
0	142606	71981	1021
0	142612	71981	1011
0	142618	71981	1001
0	142624	71981	991
0	142630	71981	981
0	142636	71981	971
0	142642	71981	961
0	142648	71981	951
0	142654	71981	941
0	142660	71981	931
0	142666	71981	921
0	142672	71981	911
0	142678	71981	901
0	142684	71981	891
0	142690	71981	881
0	142696	71981	871
0	142702	71981	861
0	142708	71981	851
0	142719	71982	842
0	142746	71992	842
0	142773	72002	842
0	142805	72012	842
0	142835	72022	842
0	142863	72032	842
0	142891	72042	842
0	142921	72052	842
0	142951	72062	842
0	142979	72072	842
0	143007	72082	842
0	143035	72092	842
0	143063	72102	842
0	143091	72112	842
0	143119	72122	842
0	143151	72132	842
0	143181	72142	842
0	143213	72152	842
0	143243	72162	842
0	143280	72172	842
0	143311	72182	842
0	143340	72192	842
0	143368	72202	842
0	143403	72212	842
0	143434	72222	842
0	143465	72232	842
0	143496	72242	842
0	143527	72252	842
0	143558	72262	842
0	143591	72272	842
0	143625	72282	842
0	143657	72292	842
0	143691	72302	842
0	143723	72312	842
0	143755	72322	842
0	143787	72332	842
0	143821	72342	842
0	143855	72352	842
0	143887	72362	842
0	143921	72372	842
0	143954	72382	842
0	143987	72392	842
0	144020	72402	842
0	144055	72412	842
0	144094	72422	842
0	144134	72432	842
0	144173	72442	842
0	144211	72452	842
0	144251	72462	842
0	144289	72472	842
0	144327	72482	842
0	144365	72492	842
0	144403	72502	842
0	144443	72512	842
0	144481	72522	842
0	144519	72532	842
0	144557	72542	842
0	144595	72552	842
0	144635	72562	842
0	144679	72572	842
0	144718	72582	842
0	144757	72592	842
0	144796	72602	842
0	144837	72612	842
0	144876	72622	842
0	144915	72632	842
0	144954	72642	842
0	144993	72652	842
0	145034	72662	842
0	145076	72672	842
0	145117	72682	842
0	145162	72692	842
0	145206	72702	842
0	145249	72712	842
0	145294	72722	842
0	145340	72732	842
0	145387	72742	842
0	145432	72752	842
0	145477	72762	842
0	145527	72772	842
0	145573	72782	842
0	145623	72792	842
0	145672	72802	842
0	145720	72812	842
0	145768	72822	842
0	145818	72832	842
0	145866	72842	842
0	145914	72852	842
0	145962	72862	842
0	146012	72872	842
0	146060	72882	842
0	146110	72892	842
0	146161	72902	842
0	146210	72912	842
0	146259	72922	842
0	146314	72932	842
0	146365	72942	842
0	146418	72952	842
0	146469	72962	842
0	146526	72972	842
0	146584	72982	842
0	146638	72992	842
0	146692	73002	842
0	146746	73012	842
0	146802	73022	842
0	146831	73024	834
0	146888	73034	834
0	146946	73044	834
0	147003	73054	834
0	147063	73064	834
0	147124	73074	834
0	147185	73084	834
0	147244	73094	834
0	147306	73104	834
0	147366	73114	834
0	147426	73124	834
0	147486	73134	834
0	147546	73144	834
0	147606	73154	834
0	147666	73164	834
0	147728	73174	834
0	147789	73184	834
0	147851	73194	834
0	147912	73204	834
0	147975	73214	834
0	148040	73224	834
0	148105	73234	834
0	148171	73244	834
0	148238	73254	834
0	148303	73264	834
0	148368	73274	834
0	148433	73284	834
0	148500	73294	834
0	148565	73304	834
0	148630	73314	834
0	148696	73324	834
0	148761	73334	834
0	148828	73344	834
0	148894	73354	834
0	148960	73364	834
0	149030	73374	834
0	149098	73384	834
0	149166	73394	834
0	149234	73404	834
0	149305	73414	834
0	149376	73424	834
0	149446	73434	834
0	149518	73444	834
0	149588	73454	834
0	149658	73464	834
0	149728	73474	834
0	149798	73484	834
0	149868	73494	834
0	149938	73504	834
0	150008	73514	834
0	150078	73524	834
0	150148	73534	834
0	150218	73544	834
0	150290	73554	834
0	150362	73564	834
0	150433	73574	834
0	150508	73584	834
0	150579	73594	834
0	150650	73604	834
0	150720	73614	834
0	150790	73624	834
0	150860	73634	834
0	150930	73644	834
0	151000	73654	834
0	151069	73664	834
0	151136	73674	834
0	151204	73684	834
0	151272	73694	834
0	151340	73704	834
0	151410	73714	834
0	151478	73724	834
0	151546	73734	834
0	151614	73744	834
0	151682	73754	834
0	151752	73764	834
0	151820	73774	834
0	151888	73784	834
0	151956	73794	834
0	152024	73804	834
0	152092	73814	834
0	152160	73824	834
0	152230	73834	834
0	152298	73844	834
0	152366	73854	834
0	152436	73864	834
0	152511	73874	834
0	152583	73884	834
0	152656	73894	834
0	152730	73904	834
0	152805	73914	834
0	152883	73924	834
0	152957	73934	834
0	153031	73944	834
0	153105	73954	834
0	153179	73964	834
0	153253	73974	834
0	153327	73984	834
0	153403	73994	834
0	153479	74004	834
0	153553	74014	834
0	153629	74024	834
0	153705	74034	834
0	153780	74044	834
0	153853	74054	834
0	153926	74064	834
0	153999	74074	834
0	154072	74084	834
0	154145	74094	834
0	154218	74104	834
0	154291	74114	834
0	154364	74124	834
0	154437	74134	834
0	154510	74144	834
0	154583	74154	834
0	154658	74164	834
0	154731	74174	834
0	154804	74184	834
0	154877	74194	834
0	154950	74204	834
0	155023	74214	834
0	155096	74224	834
0	155171	74234	834
0	155246	74244	834
0	155320	74254	834
0	155396	74264	834
0	155471	74274	834
0	155546	74284	834
0	155621	74294	834
0	155696	74304	834
0	155773	74314	834
0	155851	74324	834
0	155927	74334	834
0	156003	74344	834
0	156079	74354	834
0	156155	74364	834
0	156233	74374	834
0	156309	74384	834
0	156385	74394	834
0	156461	74404	834
0	156537	74414	834
0	156617	74424	834
0	156693	74434	834
0	156769	74444	834
0	156845	74454	834
0	156923	74464	834
0	156999	74474	834
0	157075	74484	834
0	161918	75334	1674
0	161955	75334	1664
0	161961	75334	1654
0	161967	75334	1644
0	161973	75334	1634
0	161979	75334	1624
0	161985	75334	1614
0	161991	75334	1604
0	161997	75334	1594
0	162003	75334	1584
0	162009	75334	1574
0	162015	75334	1564
0	162021	75334	1554
0	162027	75334	1544
0	162033	75334	1534
0	162039	75334	1524
0	162045	75334	1514
0	162051	75334	1504
0	162057	75334	1494
0	162063	75334	1484
0	162069	75334	1474
0	162075	75334	1464
0	162081	75334	1454
0	162087	75334	1444
0	162093	75334	1434
0	162099	75334	1424
0	162105	75334	1414
0	162111	75334	1404
0	162117	75334	1394
0	162123	75334	1384
0	162129	75334	1374
0	162135	75334	1364
0	162141	75334	1354
0	162147	75334	1344
0	162153	75334	1334
0	162159	75334	1324
0	162165	75334	1314
0	162171	75334	1304
0	162177	75334	1294
0	162183	75334	1284
0	162189	75334	1274
0	162195	75334	1264
0	162201	75334	1254
0	162207	75334	1244
0	162213	75334	1234
0	162219	75334	1224
0	162225	75334	1214
0	162231	75334	1204
0	162237	75334	1194
0	162243	75334	1184
0	162249	75334	1174
0	162255	75334	1164
0	162261	75334	1154
0	162267	75334	1144
0	162273	75334	1134
0	162279	75334	1124
0	162285	75334	1114
0	162291	75334	1104
0	162297	75334	1094
0	162303	75334	1084
0	162309	75334	1074
0	162315	75334	1064
0	162321	75334	1054
0	162327	75334	1044
0	162333	75334	1034
0	162339	75334	1024
0	162345	75334	1014
0	162351	75334	1004
0	162357	75334	994
0	162363	75334	984
0	162369	75334	974
0	162375	75334	964
0	162381	75334	954
0	162387	75334	944
0	162393	75334	934
0	162399	75334	924
0	162405	75334	914
0	162411	75334	904
0	162417	75334	894
0	162423	75334	884
0	162429	75334	874
0	162435	75334	864
0	162441	75334	854
0	162447	75334	844
0	162453	75334	834
0	162525	75344	834
0	162630	75354	834
0	162734	75364	834
0	162836	75374	834
0	162941	75384	834
0	163050	75394	834
0	163156	75404	834
0	163262	75414	834
0	163368	75424	834
0	163474	75434	834
0	163585	75444	834
0	163692	75454	834
0	163797	75464	834
0	163902	75474	834
0	164007	75484	834
0	164117	75494	834
0	164224	75504	834
0	164329	75514	834
0	164434	75524	834
0	164543	75534	834
0	164649	75544	834
0	164755	75554	834
0	164863	75564	834
0	164969	75574	834
0	165076	75584	834
0	165184	75594	834
0	165289	75604	834
0	165397	75614	834
0	165505	75624	834
0	165611	75634	834
0	165717	75644	834
0	165823	75654	834
0	165933	75664	834
0	166041	75674	834
0	166150	75684	834
0	166258	75694	834
0	166367	75704	834
0	166475	75714	834
0	166584	75724	834
0	166694	75734	834
0	166804	75744	834
0	166914	75754	834
0	167024	75764	834
0	167134	75774	834
0	167242	75784	834
0	167351	75794	834
0	167458	75804	834
0	167565	75814	834
0	167673	75824	834
0	167784	75834	834
0	167889	75844	834
0	167996	75854	834
0	168103	75864	834
0	168209	75874	834
0	168316	75884	834
0	168424	75894	834
0	168530	75904	834
0	168638	75914	834
0	168747	75924	834
0	168853	75934	834
0	168961	75944	834
0	169064	75954	834
0	169169	75964	834
0	169273	75974	834
0	169378	75984	834
0	169481	75994	834
0	169586	76004	834
0	169689	76014	834
0	169792	76024	834
0	169898	76034	834
0	170003	76044	834
0	170106	76054	834
0	170209	76064	834
0	170312	76074	834
0	170415	76084	834
0	170519	76094	834
0	170627	76104	834
0	170730	76114	834
0	170834	76124	834
0	170936	76134	834
0	171038	76144	834
0	171142	76154	834
0	171249	76164	834
0	171355	76174	834
0	171458	76184	834
0	171564	76194	834
0	171667	76204	834
0	171772	76214	834
0	171876	76224	834
0	171982	76234	834
0	172086	76244	834
0	172189	76254	834
0	172296	76264	834
0	172401	76274	834
0	172506	76284	834
0	172613	76294	834
0	172720	76304	834
0	172825	76314	834
0	172931	76324	834
0	173038	76334	834
0	173147	76344	834
0	173251	76354	834
0	173355	76364	834
0	173462	76374	834
0	173565	76384	834
0	173669	76394	834
0	173773	76404	834
0	173876	76414	834
0	173980	76424	834
0	174086	76434	834
0	174189	76444	834
0	174288	76454	834
0	174392	76464	834
0	174491	76474	834
0	174591	76484	834
0	174690	76494	834
0	174788	76504	834
0	174887	76514	834
0	174984	76524	834
0	175082	76534	834
0	175180	76544	834
0	175277	76554	834
0	175376	76564	834
0	175474	76574	834
0	175575	76584	834
0	175674	76594	834
0	175779	76604	834
0	175879	76614	834
0	175978	76624	834
0	176077	76634	834
0	176177	76644	834
0	176275	76654	834
0	176375	76664	834
0	176474	76674	834
0	176571	76684	834
0	176671	76694	834
0	176767	76704	834
0	176866	76714	834
0	176962	76724	834
0	177058	76734	834
0	177156	76744	834
0	177250	76754	834
0	177344	76764	834


