version 2
run General-0-20250129-16:25:51-10079
attr configname General
attr datetime 20250129-16:25:51
attr experiment General
attr inifile shaw_exist.ini
attr iterationvars ""
attr iterationvarsf ""
attr measurement ""
attr network src.dtnsim
attr processid 10079
attr repetition 0
attr replication #0
attr resultdir results
attr runnumber 0
attr seedset 0
param dtnsim.central.contactsFile "\"contactPlan/Contacts.txt\""
param dtnsim.central.contactsFile_A "\"contactPlan/Contacts_A.txt\""
param dtnsim.central.contactsFile_B "\"contactPlan/Contacts_B.txt\""
param dtnsim.central.contactIdsToDelete "\"8 9 10 12 16 28 32 36 40 41 43 47 49 50 51 52 59 62 75 77 85 89 90 96 101 102 107 110 119 122 130 152 153 154 155 159 167 173 176 178 180 185 187 190 193 196 199 201 202 204 207 209 214 226 231 236 237 238 241 245 247 249 253 255 267 278 279 283 286 288 292 294 295 303 304 310 311 319 325 326 331 332 335 342 345 349 351 360 362 364 368 370 373 377 387 389 394 396 398 399\""
param dtnsim.central.contactIdsToDelete_from_celestialA "\"9 10 32 40 41 49 52 77 85 89 96 101 110 119 130 152 154 159 173 176 178 180 187 193 199 201 204 207 214 226 231 241 245 247 278 283 286 288 304 325 332 335 345 349 351 362 368 370 373 387 389 399\""
param dtnsim.central.contactIdsToDelete_from_celestialB "\"8 12 16 28 36 43 47 50 51 59 62 75 90 102 107 122 153 155 167 185 190 196 202 209 236 237 238 249 253 255 267 279 292 294 295 303 310 311 319 326 331 342 360 364 377 394 396 398\""
param dtnsim.central.celestialA_nodes "\"1 2 3\""
param dtnsim.central.celestialB_nodes "\"4 5 6\""
param dtnsim.central.locallyfaultsAware true
param dtnsim.central.mode_two_celestial true
param dtnsim.central.faultsAware false
param dtnsim.nodesNumber 6
param dtnsim.node[1].icon "\"receiverdish\""
param dtnsim.node[2..5].icon "\"satellite\""
param dtnsim.node[6].icon "\"receiverdish\""
param dtnsim.node[*].dtn.routing "\"cgrModel350\""
param dtnsim.node[*].dtn.routingType "\"routeListType:allPaths-firstEnding,volumeAware:allContacts,extensionBlock:on,contactPlan:global\""
param dtnsim.node[1].app.enable true
param dtnsim.node[1].app.custodyTransfer true
param dtnsim.node[1].app.bundlesNumber "\"2000\""
param dtnsim.node[1].app.start "\"0\""
param dtnsim.node[1].app.destinationEid "\"6\""
param dtnsim.node[1].app.size "\"1500\""
param dtnsim.node[1].app.interval 1
param dtnsim.node[*].app.custodyTimeout 100000000000000
param dtnsim.node[1].app.ttl 20000

vector 0 dtnsim.node[6].app appBundleReceivedDelayvec:vector ETV
attr interpolationmode none
attr source appBundleReceivedDelay
attr title "appBundleReceivedDelayvec, vector"
0	73831	1279.46	1279.46
0	73832	1279.46	1278.46
0	73833	1279.46	1277.46
0	73834	1279.46	1276.46
0	73835	1279.46	1275.46
0	73836	1279.46	1274.46
0	73837	1279.46	1273.46
0	73838	1279.46	1272.46
0	73839	1279.46	1271.46
0	73840	1279.46	1270.46
0	73841	1279.46	1269.46
0	73842	1279.46	1268.46
0	73843	1279.46	1267.46
0	73844	1279.46	1266.46
0	73845	1279.46	1265.46
0	73846	1279.46	1264.46
0	73847	1279.46	1263.46
0	73848	1279.46	1262.46
0	73849	1279.46	1261.46
0	73850	1279.46	1260.46
0	73851	1279.46	1259.46
0	73852	1279.46	1258.46
0	73853	1279.46	1257.46
0	73854	1279.46	1256.46
0	73855	1279.46	1255.46
0	73856	1279.46	1254.46
0	73857	1279.46	1253.46
0	73858	1279.46	1252.46
0	73859	1279.46	1251.46
0	73860	1279.46	1250.46
0	73861	1279.46	1249.46
0	73862	1279.46	1248.46
0	73863	1279.46	1247.46
0	73864	1279.46	1246.46
0	73865	1279.46	1245.46
0	73866	1279.46	1244.46
0	73867	1279.46	1243.46
0	73868	1279.46	1242.46
0	73869	1279.46	1241.46
0	73870	1279.46	1240.46
0	73871	1279.46	1239.46
0	73872	1279.46	1238.46
0	73873	1279.46	1237.46
0	73874	1279.46	1236.46
0	73875	1279.46	1235.46
0	73876	1279.46	1234.46
0	73877	1279.46	1233.46
0	73878	1279.46	1232.46
0	73879	1279.46	1231.46
0	73880	1279.46	1230.46
0	73881	1279.46	1229.46
0	73882	1279.46	1228.46
0	73883	1279.46	1227.46
0	73884	1279.46	1226.46
0	73885	1279.46	1225.46
0	73886	1279.46	1224.46
0	73887	1279.46	1223.46
0	73888	1279.46	1222.46
0	73889	1279.46	1221.46
0	73890	1279.46	1220.46
0	73891	1279.46	1219.46
0	73892	1279.46	1218.46
0	73893	1279.46	1217.46
0	73894	1279.46	1216.46
0	73895	1279.46	1215.46
0	73896	1279.46	1214.46
0	73897	1279.46	1213.46
0	73898	1279.46	1212.46
0	73899	1279.46	1211.46
0	73900	1279.46	1210.46
0	73901	1279.46	1209.46
0	73902	1279.46	1208.46
0	73903	1279.46	1207.46
0	73904	1279.46	1206.46
0	73905	1279.46	1205.46
0	73906	1279.46	1204.46
0	73907	1279.46	1203.46
0	73908	1279.46	1202.46
0	73909	1279.46	1201.46
0	73910	1279.46	1200.46
0	73911	1279.46	1199.46
0	73912	1279.46	1198.46
0	73913	1279.46	1197.46
0	73914	1279.46	1196.46
0	73915	1279.46	1195.46
0	73916	1279.46	1194.46
0	73917	1279.46	1193.46
0	73918	1279.46	1192.46
0	73919	1279.46	1191.46
0	73920	1279.46	1190.46
0	73921	1279.46	1189.46
0	73922	1279.46	1188.46
0	73923	1279.46	1187.46
0	73924	1279.46	1186.46
0	73925	1279.46	1185.46
0	73926	1279.46	1184.46
0	73927	1279.46	1183.46
0	73928	1279.46	1182.46
0	73929	1279.46	1181.46
0	73930	1279.46	1180.46
0	73931	1279.46	1179.46
0	73932	1279.46	1178.46
0	73933	1279.46	1177.46
0	73934	1279.46	1176.46
0	73935	1279.46	1175.46
0	73936	1279.46	1174.46
0	73937	1279.46	1173.46
0	73938	1279.46	1172.46
0	73939	1279.46	1171.46
0	73940	1279.46	1170.46
0	73941	1279.46	1169.46
0	73942	1279.46	1168.46
0	73943	1279.46	1167.46
0	73944	1279.46	1166.46
0	73945	1279.46	1165.46
0	73946	1279.46	1164.46
0	73947	1279.46	1163.46
0	73948	1279.46	1162.46
0	73949	1279.46	1161.46
0	73950	1279.46	1160.46
0	73951	1279.46	1159.46
0	73952	1279.46	1158.46
0	73953	1279.46	1157.46
0	73954	1279.46	1156.46
0	73955	1279.46	1155.46
0	73956	1279.46	1154.46
0	73957	1279.46	1153.46
0	73958	1279.46	1152.46
0	73959	1279.46	1151.46
0	73960	1279.46	1150.46
0	73961	1279.46	1149.46
0	73962	1279.46	1148.46
0	73963	1279.46	1147.46
0	73964	1279.46	1146.46
0	73965	1279.46	1145.46
0	73966	1279.46	1144.46
0	73967	1279.46	1143.46
0	73968	1279.46	1142.46
0	73969	1279.46	1141.46
0	73970	1279.46	1140.46
0	73971	1279.46	1139.46
0	73972	1279.46	1138.46
0	73973	1279.46	1137.46
0	73974	1279.46	1136.46
0	73975	1279.46	1135.46
0	73976	1279.46	1134.46
0	73977	1279.46	1133.46
0	73978	1279.46	1132.46
0	73979	1279.46	1131.46
0	73980	1279.46	1130.46
0	73981	1279.46	1129.46
0	73982	1279.46	1128.46
0	73983	1279.46	1127.46
0	73984	1279.46	1126.46
0	73985	1279.46	1125.46
0	73986	1279.46	1124.46
0	73987	1279.46	1123.46
0	73988	1279.46	1122.46
0	73989	1279.46	1121.46
0	73990	1279.46	1120.46
0	73991	1279.46	1119.46
0	73992	1279.46	1118.46
0	73993	1279.46	1117.46
0	73994	1279.46	1116.46
0	73995	1279.46	1115.46
0	73996	1279.46	1114.46
0	73997	1279.46	1113.46
0	73998	1279.46	1112.46
0	73999	1279.46	1111.46
0	74000	1279.46	1110.46
0	74001	1279.46	1109.46
0	74002	1279.46	1108.46
0	74003	1279.46	1107.46
0	74004	1279.46	1106.46
0	74005	1279.46	1105.46
0	74006	1279.46	1104.46
0	74007	1279.46	1103.46
0	74008	1279.46	1102.46
0	74009	1279.46	1101.46
0	74010	1279.46	1100.46
0	74011	1279.46	1099.46
0	74012	1279.46	1098.46
0	74013	1279.46	1097.46
0	74014	1279.46	1096.46
0	74015	1279.46	1095.46
0	74016	1279.46	1094.46
0	74017	1279.46	1093.46
0	74018	1279.46	1092.46
0	74019	1279.46	1091.46
0	74020	1279.46	1090.46
0	74021	1279.46	1089.46
0	74022	1279.46	1088.46
0	74023	1279.46	1087.46
0	74024	1279.46	1086.46
0	74025	1279.46	1085.46
0	74026	1279.46	1084.46
0	74027	1279.46	1083.46
0	74028	1279.46	1082.46
0	74029	1279.46	1081.46
0	74030	1279.46	1080.46
0	74031	1279.46	1079.46
0	74032	1279.46	1078.46
0	74033	1279.46	1077.46
0	74034	1279.46	1076.46
0	74035	1279.46	1075.46
0	74036	1279.46	1074.46
0	74037	1279.46	1073.46
0	74038	1279.46	1072.46
0	74039	1279.46	1071.46
0	74040	1279.46	1070.46
0	74041	1279.46	1069.46
0	74042	1279.46	1068.46
0	74043	1279.46	1067.46
0	74044	1279.46	1066.46
0	74045	1279.46	1065.46
0	74046	1279.46	1064.46
0	74047	1279.46	1063.46
0	74048	1279.46	1062.46
0	74049	1279.46	1061.46
0	74050	1279.46	1060.46
0	74051	1279.46	1059.46
0	74052	1279.46	1058.46
0	74053	1279.46	1057.46
0	74054	1279.46	1056.46
0	74055	1279.46	1055.46
0	74056	1279.46	1054.46
0	74057	1279.46	1053.46
0	74058	1279.46	1052.46
0	74059	1279.46	1051.46
0	74060	1279.46	1279.46
0	74061	1279.46	1278.46
0	74062	1279.46	1277.46
0	74063	1279.46	1276.46
0	74064	1279.46	1275.46
0	74065	1279.46	1274.46
0	74066	1279.46	1273.46
0	74067	1279.46	1272.46
0	74068	1279.46	1271.46
0	74069	1279.46	1270.46
0	74070	1279.46	1269.46
0	74071	1279.46	1268.46
0	74072	1279.46	1267.46
0	74073	1279.46	1266.46
0	74074	1279.46	1265.46
0	74075	1279.46	1264.46
0	74076	1279.46	1263.46
0	74077	1279.46	1262.46
0	74078	1279.46	1261.46
0	74079	1279.46	1260.46
0	74080	1279.46	1259.46
0	74081	1279.46	1258.46
0	74082	1279.46	1257.46
0	74083	1279.46	1256.46
0	74084	1279.46	1255.46
0	74085	1279.46	1254.46
0	74086	1279.46	1253.46
0	74087	1279.46	1252.46
0	74088	1279.46	1251.46
0	74089	1279.46	1250.46
0	74090	1279.46	1249.46
0	74091	1279.46	1248.46
0	74092	1279.46	1247.46
0	74093	1279.46	1246.46
0	74094	1279.46	1245.46
0	74095	1279.46	1244.46
0	74096	1279.46	1243.46
0	74097	1279.46	1242.46
0	74098	1279.46	1241.46
0	74099	1279.46	1240.46
0	74100	1279.46	1239.46
0	74101	1279.46	1238.46
0	74102	1279.46	1237.46
0	74103	1279.46	1236.46
0	74104	1279.46	1235.46
0	74105	1279.46	1234.46
0	74106	1279.46	1233.46
0	74107	1279.46	1232.46
0	74108	1279.46	1231.46
0	74109	1279.46	1230.46
0	74110	1279.46	1229.46
0	74111	1279.46	1228.46
0	74112	1279.46	1227.46
0	74113	1279.46	1226.46
0	74114	1279.46	1225.46
0	74115	1279.46	1224.46
0	74116	1279.46	1223.46
0	74117	1279.46	1222.46
0	74118	1279.46	1221.46
0	74119	1279.46	1220.46
0	74120	1279.46	1219.46
0	74121	1279.46	1218.46
0	74122	1279.46	1217.46
0	74123	1279.46	1216.46
0	74124	1279.46	1215.46
0	74125	1279.46	1214.46
0	74126	1279.46	1213.46
0	74127	1279.46	1212.46
0	74128	1279.46	1211.46
0	74129	1279.46	1210.46
0	74130	1279.46	1209.46
0	74131	1279.46	1208.46
0	74132	1279.46	1207.46
0	74133	1279.46	1206.46
0	74134	1279.46	1205.46
0	74135	1279.46	1204.46
0	74136	1279.46	1203.46
0	74137	1279.46	1202.46
0	74138	1279.46	1201.46
0	74139	1279.46	1200.46
0	74140	1279.46	1199.46
0	74141	1279.46	1198.46
0	74142	1279.46	1197.46
0	74143	1279.46	1196.46
0	74144	1279.46	1195.46
0	74145	1279.46	1194.46
0	74146	1279.46	1193.46
0	74147	1279.46	1192.46
0	74148	1279.46	1191.46
0	74149	1279.46	1190.46
0	74150	1279.46	1189.46
0	74151	1279.46	1188.46
0	74152	1279.46	1187.46
0	74153	1279.46	1186.46
0	74154	1279.46	1185.46
0	74155	1279.46	1184.46
0	74156	1279.46	1183.46
0	74157	1279.46	1182.46
0	74158	1279.46	1181.46
0	74159	1279.46	1180.46
0	74160	1279.46	1179.46
0	74161	1279.46	1178.46
0	74162	1279.46	1177.46
0	74163	1279.46	1176.46
0	74164	1279.46	1175.46
0	74165	1279.46	1174.46
0	74166	1279.46	1173.46
0	74167	1279.46	1172.46
0	74168	1279.46	1171.46
0	74169	1279.46	1170.46
0	74170	1279.46	1169.46
0	74171	1279.46	1168.46
0	74172	1279.46	1167.46
0	74173	1279.46	1166.46
0	74174	1279.46	1165.46
0	74175	1279.46	1164.46
0	74176	1279.46	1163.46
0	74177	1279.46	1162.46
0	74178	1279.46	1161.46
0	74179	1279.46	1160.46
0	74180	1279.46	1159.46
0	74181	1279.46	1158.46
0	74182	1279.46	1157.46
0	74183	1279.46	1156.46
0	74184	1279.46	1155.46
0	74185	1279.46	1154.46
0	74186	1279.46	1153.46
0	74187	1279.46	1152.46
0	74188	1279.46	1151.46
0	74189	1279.46	1150.46
0	74190	1279.46	1050.46
0	74191	1279.46	1149.46
0	74192	1279.46	1049.46
0	74193	1279.46	1048.46
0	74194	1279.46	1047.46
0	74195	1279.46	1046.46
0	74196	1279.46	1045.46
0	74197	1279.46	1044.46
0	74198	1279.46	1043.46
0	74199	1279.46	1042.46
0	74200	1279.46	1041.46
0	74201	1279.46	1040.46
0	74202	1279.46	1039.46
0	74203	1279.46	1038.46
0	74204	1279.46	1037.46
0	74205	1279.46	1036.46
0	74206	1279.46	1035.46
0	74207	1279.46	1034.46
0	74208	1279.46	1033.46
0	74209	1279.46	1032.46
0	74210	1279.46	1031.46
0	74211	1279.46	1030.46
0	74212	1279.46	1029.46
0	74213	1279.46	1028.46
0	74214	1279.46	1027.46
0	74215	1279.46	1026.46
0	74216	1279.46	1025.46
0	74217	1279.46	1024.46
0	74218	1279.46	1023.46
0	74219	1279.46	1022.46
0	74220	1279.46	1021.46
0	74221	1279.46	1020.46
0	74222	1279.46	1019.46
0	74223	1279.46	1018.46
0	74224	1279.46	1017.46
0	74225	1279.46	1016.46
0	74226	1279.46	1015.46
0	74227	1279.46	1014.46
0	74228	1279.46	1013.46
0	74229	1279.46	1012.46
0	74230	1279.46	1011.46
0	74231	1279.46	1010.46
0	74232	1279.46	1009.46
0	74233	1279.46	1008.46
0	74234	1279.46	1007.46
0	74235	1279.46	1006.46
0	74236	1279.46	1005.46
0	74237	1279.46	1004.46
0	74238	1279.46	1003.46
0	74239	1279.46	1002.46
0	74240	1279.46	1001.46
0	74241	1279.46	1000.46
0	74242	1279.46	999.46
0	74243	1279.46	998.46
0	74244	1279.46	997.46
0	74245	1279.46	996.46
0	74246	1279.46	995.46
0	74247	1279.46	994.46
0	74248	1279.46	993.46
0	74249	1279.46	992.46
0	74250	1279.46	991.46
0	74251	1279.46	990.46
0	74252	1279.46	989.46
0	74253	1279.46	988.46
0	74254	1279.46	987.46
0	74255	1279.46	986.46
0	74256	1279.46	985.46
0	74257	1279.46	984.46
0	74258	1279.46	983.46
0	74259	1279.46	982.46
0	74260	1279.46	981.46
0	74261	1279.46	980.46
0	74262	1279.46	979.46
0	74263	1279.46	978.46
0	74264	1279.46	977.46
0	74265	1279.46	976.46
0	74266	1279.46	975.46
0	74267	1279.46	974.46
0	74268	1279.46	973.46
0	74269	1279.46	972.46
0	74270	1279.46	971.46
0	74271	1279.46	970.46
0	74272	1279.46	969.46
0	74273	1279.46	968.46
0	74274	1279.46	967.46
0	74275	1279.46	966.46
0	74276	1279.46	965.46
0	74277	1279.46	964.46
0	74278	1279.46	963.46
0	74279	1279.46	962.46
0	74280	1279.46	961.46
0	74281	1279.46	960.46
0	74282	1279.46	959.46
0	74283	1279.46	958.46
0	74284	1279.46	957.46
0	74285	1279.46	956.46
0	74286	1279.46	955.46
0	74287	1279.46	954.46
0	74288	1279.46	953.46
0	74289	1279.46	952.46
0	74290	1279.46	951.46
0	74291	1279.46	950.46
0	74292	1279.46	949.46
0	74293	1279.46	948.46
0	74294	1279.46	947.46
0	74295	1279.46	946.46
0	74296	1279.46	945.46
0	74297	1279.46	944.46
0	74298	1279.46	943.46
0	74299	1279.46	942.46
0	74300	1279.46	941.46
0	74301	1279.46	940.46
0	74302	1279.46	939.46
0	74303	1279.46	938.46
0	74304	1279.46	937.46
0	74305	1279.46	936.46
0	74306	1279.46	935.46
0	74307	1279.46	934.46
0	74308	1279.46	933.46
0	74309	1279.46	932.46
0	74310	1279.46	931.46
0	74311	1279.46	930.46
0	74312	1279.46	929.46
0	74313	1279.46	928.46
0	74314	1279.46	927.46
0	74315	1279.46	926.46
0	74316	1279.46	925.46
0	74317	1279.46	924.46
0	74318	1279.46	923.46
0	74319	1279.46	922.46
0	74320	1279.46	921.46
0	74321	1279.46	920.46
0	74322	1279.46	919.46
0	74323	1279.46	918.46
0	74324	1279.46	917.46
0	74325	1279.46	916.46
0	74326	1279.46	915.46
0	74327	1279.46	914.46
0	74328	1279.46	913.46
0	74329	1279.46	912.46
0	74330	1279.46	911.46
0	74331	1279.46	910.46
0	74332	1279.46	909.46
0	74333	1279.46	908.46
0	74334	1279.46	907.46
0	74335	1279.46	906.46
0	74336	1279.46	905.46
0	74337	1279.46	904.46
0	74338	1279.46	903.46
0	74339	1279.46	902.46
0	74340	1279.46	901.46
0	74341	1279.46	900.46
0	74342	1279.46	899.46
0	74343	1279.46	898.46
0	74344	1279.46	897.46
0	74345	1279.46	896.46
0	74346	1279.46	895.46
0	74347	1279.46	894.46
0	74348	1279.46	893.46
0	74349	1279.46	892.46
0	74350	1279.46	891.46
0	74351	1279.46	890.46
0	74352	1279.46	889.46
0	74353	1279.46	888.46
0	74354	1279.46	887.46
0	74355	1279.46	886.46
0	74356	1279.46	885.46
0	74357	1279.46	884.46
0	74358	1279.46	883.46
0	74359	1279.46	882.46
0	74360	1279.46	881.46
0	74361	1279.46	880.46
0	74362	1279.46	879.46
0	74363	1279.46	878.46
0	74364	1279.46	877.46
0	74365	1279.46	876.46
0	74366	1279.46	875.46
0	74367	1279.46	874.46
0	74368	1279.46	873.46
0	74369	1279.46	872.46
0	74370	1279.46	871.46
0	74371	1279.46	870.46
0	74372	1279.46	869.46
0	74373	1279.46	868.46
0	74374	1279.46	867.46
0	74375	1279.46	866.46
0	74376	1279.46	865.46
0	74377	1279.46	864.46
0	74378	1279.46	863.46
0	74379	1279.46	862.46
0	74380	1279.46	861.46
0	74381	1279.46	860.46
0	74382	1279.46	859.46
0	74383	1279.46	858.46
0	74384	1279.46	857.46
0	74385	1279.46	856.46
0	74386	1279.46	855.46
0	74387	1279.46	854.46
0	74388	1279.46	853.46
0	74389	1279.46	852.46
0	74390	1279.46	851.46
0	74391	1279.46	850.46
0	74392	1279.46	849.46
0	74393	1279.46	848.46
0	74394	1279.46	847.46
0	74395	1279.46	846.46
0	74396	1279.46	845.46
0	74397	1279.46	844.46
0	74398	1279.46	843.46
0	74399	1279.46	842.46
0	74400	1279.46	841.46
0	74401	1279.46	840.46
0	74402	1279.46	839.46
0	74403	1279.46	838.46
0	74404	1279.46	837.46
0	74405	1279.46	836.46
0	74406	1279.46	835.46
0	74407	1279.46	834.46
0	74408	1279.46	833.46
0	74409	1279.46	832.46
0	74410	1279.46	831.46
0	74411	1279.46	830.46
0	74412	1279.46	829.46
0	74413	1279.46	828.46
0	74414	1279.46	827.46
0	74415	1279.46	826.46
0	74416	1279.46	825.46
0	74417	1279.46	824.46
0	74418	1279.46	823.46
0	74419	1279.46	822.46
0	74420	1279.46	821.46
0	74421	1279.46	820.46
0	74422	1279.46	819.46
0	74423	1279.46	818.46
0	74424	1279.46	817.46
0	74425	1279.46	816.46
0	74426	1279.46	815.46
0	74427	1279.46	814.46
0	74428	1279.46	813.46
0	74429	1279.46	812.46
0	74430	1279.46	811.46
0	74431	1279.46	810.46
0	74432	1279.46	809.46
0	74433	1279.46	808.46
0	74434	1279.46	807.46
0	74435	1279.46	806.46
0	74436	1279.46	805.46
0	74437	1279.46	804.46
0	74438	1279.46	803.46
0	74439	1279.46	802.46
0	74440	1279.46	801.46
0	74441	1279.46	800.46
0	74442	1279.46	799.46
0	74443	1279.46	798.46
0	74444	1279.46	797.46
0	74445	1279.46	796.46
0	74446	1279.46	795.46
0	74447	1279.46	794.46
0	74448	1279.46	793.46
0	74449	1279.46	792.46
0	74450	1279.46	791.46
0	74451	1279.46	790.46
0	74452	1279.46	789.46
0	74453	1279.46	788.46
0	74454	1279.46	787.46
0	74455	1279.46	786.46
0	74456	1279.46	785.46
0	74457	1279.46	784.46
0	74458	1279.46	783.46
0	74459	1279.46	782.46
0	74460	1279.46	781.46
0	74461	1279.46	780.46
0	74462	1279.46	779.46
0	74463	1279.46	778.46
0	74464	1279.46	777.46
0	74465	1279.46	776.46
0	74466	1279.46	775.46
0	74467	1279.46	774.46
0	74468	1279.46	773.46
0	74469	1279.46	772.46
0	74470	1279.46	771.46
0	74471	1279.46	770.46
0	74472	1279.46	769.46
0	74473	1279.46	768.46
0	74474	1279.46	767.46
0	74475	1279.46	766.46
0	74476	1279.46	765.46
0	74477	1279.46	764.46
0	74478	1279.46	763.46
0	74479	1279.46	762.46
0	74480	1279.46	761.46
0	74481	1279.46	760.46
0	74482	1279.46	759.46
0	74483	1279.46	758.46
0	74484	1279.46	757.46
0	74485	1279.46	756.46
0	74486	1279.46	755.46
0	74487	1279.46	754.46
0	74488	1279.46	753.46
0	74489	1279.46	752.46
0	74490	1279.46	751.46
0	77830	1279.58	750.58
0	77904	1280.58	750.58
0	77978	1281.58	750.58
0	78052	1282.58	750.58
0	78126	1283.58	750.58
0	78200	1284.58	750.58
0	78274	1285.58	750.58
0	78348	1286.58	750.58
0	78422	1287.58	750.58
0	78496	1288.58	750.58
0	78570	1289.58	750.58
0	78644	1290.58	750.58
0	78718	1291.58	750.58
0	78792	1292.58	750.58
0	78866	1293.58	750.58
0	78940	1294.58	750.58
0	79014	1295.58	750.58
0	79088	1296.58	750.58
0	79162	1297.58	750.58
0	79236	1298.58	750.58
0	79310	1299.58	750.58
0	79384	1300.58	750.58
0	79458	1301.58	750.58
0	79532	1302.58	750.58
0	79606	1303.58	750.58
0	79680	1304.58	750.58
0	79754	1305.58	750.58
0	79828	1306.58	750.58
0	79902	1307.58	750.58
0	79976	1308.58	750.58
0	80050	1309.58	750.58
0	80124	1310.58	750.58
0	80198	1311.58	750.58
0	80272	1312.58	750.58
0	80346	1313.58	750.58
0	80420	1314.58	750.58
0	80494	1315.58	750.58
0	80568	1316.58	750.58
0	80642	1317.58	750.58
0	80716	1318.58	750.58
0	80790	1319.58	750.58
0	80864	1320.58	750.58
0	80938	1321.58	750.58
0	81012	1322.58	750.58
0	81086	1323.58	750.58
0	81160	1324.58	750.58
0	81234	1325.58	750.58
0	81308	1326.58	750.58
0	81382	1327.58	750.58
0	81456	1328.58	750.58
0	83653	1329.58	750.58
0	83731	1330.58	750.58
0	83809	1331.58	750.58
0	83887	1332.58	750.58
0	83965	1333.58	750.58
0	84043	1334.58	750.58
0	84121	1335.58	750.58
0	84199	1336.58	750.58
0	84277	1337.58	750.58
0	84355	1338.58	750.58
0	84433	1339.58	750.58
0	84511	1340.58	750.58
0	84589	1341.58	750.58
0	84667	1342.58	750.58
0	84745	1343.58	750.58
0	84823	1344.58	750.58
0	84901	1345.58	750.58
0	84979	1346.58	750.58
0	85057	1347.58	750.58
0	85135	1348.58	750.58
0	85213	1349.58	750.58
0	85291	1350.58	750.58
0	85369	1351.58	750.58
0	85447	1352.58	750.58
0	85525	1353.58	750.58
0	85603	1354.58	750.58
0	85681	1355.58	750.58
0	85759	1356.58	750.58
0	85837	1357.58	750.58
0	85915	1358.58	750.58
0	85993	1359.58	750.58
0	86071	1360.58	750.58
0	86149	1361.58	750.58
0	86227	1362.58	750.58
0	86305	1363.58	750.58
0	86383	1364.58	750.58
0	86461	1365.58	750.58
0	86539	1366.58	750.58
0	86617	1367.58	750.58
0	86695	1368.58	750.58
0	86773	1369.58	750.58
0	86851	1370.58	750.58
0	86929	1371.58	750.58
0	87007	1372.58	750.58
0	87085	1373.58	750.58
0	87163	1374.58	750.58
0	87241	1375.58	750.58
0	87319	1376.58	750.58
0	87397	1377.58	750.58
0	87475	1378.58	750.58
0	93470	1379.46	1379.46
0	93471	1379.46	1378.46
0	93472	1379.46	1377.46
0	93473	1379.46	1376.46
0	93474	1379.46	1375.46
0	93475	1379.46	1374.46
0	93476	1379.46	1373.46
0	93477	1379.46	1372.46
0	93478	1379.46	1371.46
0	93479	1379.46	1370.46
0	93480	1379.46	1369.46
0	93481	1379.46	1368.46
0	93482	1379.46	1367.46
0	93483	1379.46	1366.46
0	93484	1379.46	1365.46
0	93485	1379.46	1364.46
0	93486	1379.46	1363.46
0	93487	1379.46	1362.46
0	93488	1379.46	1361.46
0	93489	1379.46	1360.46
0	93490	1379.46	1359.46
0	93491	1379.46	1358.46
0	93492	1379.46	1357.46
0	93493	1379.46	1356.46
0	93494	1379.46	1355.46
0	93495	1379.46	1354.46
0	93496	1379.46	1353.46
0	93497	1379.46	1352.46
0	93498	1379.46	1351.46
0	93499	1379.46	1350.46
0	93500	1379.46	1349.46
0	93501	1379.46	1348.46
0	93502	1379.46	1347.46
0	93503	1379.46	1346.46
0	93504	1379.46	1345.46
0	93505	1379.46	1344.46
0	93506	1379.46	1343.46
0	93507	1379.46	1342.46
0	93508	1379.46	1341.46
0	93509	1379.46	1340.46
0	93510	1379.46	1339.46
0	93511	1379.46	1338.46
0	93512	1379.46	1337.46
0	93513	1379.46	1336.46
0	93514	1379.46	1335.46
0	93515	1379.46	1334.46
0	93516	1379.46	1333.46
0	93517	1379.46	1332.46
0	93518	1379.46	1331.46
0	93519	1379.46	1330.46
0	93520	1379.46	1329.46
0	93521	1379.46	1328.46
0	93522	1379.46	1327.46
0	93523	1379.46	1326.46
0	93524	1379.46	1325.46
0	93525	1379.46	1324.46
0	93526	1379.46	1323.46
0	93527	1379.46	1322.46
0	93528	1379.46	1321.46
0	93529	1379.46	1320.46
0	93530	1379.46	1319.46
0	93531	1379.46	1318.46
0	93532	1379.46	1317.46
0	93533	1379.46	1316.46
0	93534	1379.46	1315.46
0	93535	1379.46	1314.46
0	93536	1379.46	1313.46
0	93537	1379.46	1312.46
0	93538	1379.46	1311.46
0	93539	1379.46	1310.46
0	93540	1379.46	1309.46
0	93541	1379.46	1308.46
0	93542	1379.46	1307.46
0	93543	1379.46	1306.46
0	93544	1379.46	1305.46
0	93545	1379.46	1304.46
0	93546	1379.46	1303.46
0	93547	1379.46	1302.46
0	93548	1379.46	1301.46
0	93549	1379.46	1300.46
0	93550	1379.46	1299.46
0	93551	1379.46	1298.46
0	93552	1379.46	1297.46
0	93553	1379.46	1296.46
0	93554	1379.46	1295.46
0	93555	1379.46	1294.46
0	93556	1379.46	1293.46
0	93557	1379.46	1292.46
0	93558	1379.46	1291.46
0	93559	1379.46	1290.46
0	93560	1379.46	1289.46
0	93561	1379.46	1288.46
0	93562	1379.46	1287.46
0	93563	1379.46	1286.46
0	93564	1379.46	1285.46
0	93565	1379.46	1284.46
0	93566	1379.46	1283.46
0	93567	1379.46	1282.46
0	93568	1379.46	1281.46
0	93569	1379.46	1280.46
0	93570	1379.46	1279.46
0	93571	1379.46	1278.46
0	93572	1379.46	1277.46
0	93573	1379.46	1276.46
0	93574	1379.46	1275.46
0	93575	1379.46	1274.46
0	93576	1379.46	1273.46
0	93577	1379.46	1272.46
0	93578	1379.46	1271.46
0	93579	1379.46	1270.46
0	93580	1379.46	1269.46
0	93581	1379.46	1268.46
0	93582	1379.46	1267.46
0	93583	1379.46	1266.46
0	93584	1379.46	1265.46
0	93585	1379.46	1264.46
0	93586	1379.46	1263.46
0	93587	1379.46	1262.46
0	93588	1379.46	1261.46
0	93589	1379.46	1260.46
0	93590	1379.46	1259.46
0	93591	1379.46	1258.46
0	93592	1379.46	1257.46
0	93593	1379.46	1256.46
0	93594	1379.46	1255.46
0	93595	1379.46	1254.46
0	93596	1379.46	1253.46
0	93597	1379.46	1252.46
0	93598	1379.46	1251.46
0	93599	1379.46	1250.46
0	93600	1379.46	1249.46
0	93601	1379.46	1248.46
0	93602	1379.46	1247.46
0	93603	1379.46	1246.46
0	93604	1379.46	1245.46
0	93605	1379.46	1244.46
0	93606	1379.46	1243.46
0	93607	1379.46	1242.46
0	93608	1379.46	1241.46
0	93609	1379.46	1240.46
0	93610	1379.46	1239.46
0	93611	1379.46	1238.46
0	93612	1379.46	1237.46
0	93613	1379.46	1236.46
0	93614	1379.46	1235.46
0	93615	1379.46	1234.46
0	93616	1379.46	1233.46
0	93617	1379.46	1232.46
0	93618	1379.46	1231.46
0	93619	1379.46	1230.46
0	93620	1379.46	1229.46
0	93621	1379.46	1228.46
0	93622	1379.46	1227.46
0	93623	1379.46	1226.46
0	93624	1379.46	1225.46
0	93625	1379.46	1224.46
0	93626	1379.46	1223.46
0	93627	1379.46	1222.46
0	93628	1379.46	1221.46
0	93629	1379.46	1220.46
0	93630	1379.46	1219.46
0	93631	1379.46	1218.46
0	93632	1379.46	1217.46
0	93633	1379.46	1216.46
0	93634	1379.46	1215.46
0	93635	1379.46	1214.46
0	93636	1379.46	1213.46
0	93637	1379.46	1212.46
0	93638	1379.46	1211.46
0	93639	1379.46	1210.46
0	93640	1379.46	1209.46
0	93641	1379.46	1208.46
0	93642	1379.46	1207.46
0	93643	1379.46	1206.46
0	93644	1379.46	1205.46
0	93645	1379.46	1204.46
0	93646	1379.46	1203.46
0	93647	1379.46	1202.46
0	93648	1379.46	1201.46
0	93649	1379.46	1200.46
0	93650	1379.46	1199.46
0	93651	1379.46	1198.46
0	93652	1379.46	1197.46
0	93653	1379.46	1196.46
0	93654	1379.46	1195.46
0	93655	1379.46	1194.46
0	93656	1379.46	1193.46
0	93657	1379.46	1192.46
0	93658	1379.46	1191.46
0	93659	1379.46	1190.46
0	93660	1379.46	1189.46
0	93661	1379.46	1188.46
0	93662	1379.46	1187.46
0	93663	1379.46	1186.46
0	93664	1379.46	1185.46
0	93665	1379.46	1184.46
0	93666	1379.46	1183.46
0	93667	1379.46	1182.46
0	93668	1379.46	1181.46
0	93669	1379.46	1180.46
0	93670	1379.46	1179.46
0	93671	1379.46	1178.46
0	93672	1379.46	1177.46
0	93673	1379.46	1176.46
0	93674	1379.46	1175.46
0	93675	1379.46	1174.46
0	93676	1379.46	1173.46
0	93677	1379.46	1172.46
0	93678	1379.46	1171.46
0	93679	1379.46	1170.46
0	93680	1379.46	1169.46
0	93681	1379.46	1168.46
0	93682	1379.46	1167.46
0	93683	1379.46	1166.46
0	93684	1379.46	1165.46
0	93685	1379.46	1164.46
0	93686	1379.46	1163.46
0	93687	1379.46	1162.46
0	93688	1379.46	1161.46
0	93689	1379.46	1160.46
0	93690	1379.46	1159.46
0	93691	1379.46	1158.46
0	93692	1379.46	1157.46
0	93693	1379.46	1156.46
0	93694	1379.46	1155.46
0	93695	1379.46	1154.46
0	93696	1379.46	1153.46
0	93697	1379.46	1152.46
0	93698	1379.46	1151.46
0	93699	1379.46	1150.46
0	93700	1379.46	1149.46
0	93701	1379.46	1148.46
0	93702	1379.46	1147.46
0	93703	1379.46	1146.46
0	93704	1379.46	1145.46
0	93705	1379.46	1144.46
0	93706	1379.46	1143.46
0	93707	1379.46	1142.46
0	93708	1379.46	1141.46
0	93709	1379.46	1140.46
0	93710	1379.46	1139.46
0	93711	1379.46	1138.46
0	93712	1379.46	1137.46
0	93713	1379.46	1136.46
0	93714	1379.46	1135.46
0	93715	1379.46	1134.46
0	93716	1379.46	1133.46
0	93717	1379.46	1132.46
0	93718	1379.46	1131.46
0	93719	1379.46	1130.46
0	93720	1379.46	1129.46
0	93721	1379.46	1128.46
0	93722	1379.46	1127.46
0	93723	1379.46	1126.46
0	93724	1379.46	1125.46
0	93725	1379.46	1124.46
0	93726	1379.46	1123.46
0	93727	1379.46	1122.46
0	93728	1379.46	1121.46
0	93729	1379.46	1120.46
0	93730	1379.46	1119.46
0	93731	1379.46	1118.46
0	93732	1379.46	1117.46
0	93733	1379.46	1116.46
0	93734	1379.46	1115.46
0	93735	1379.46	1114.46
0	93736	1379.46	1113.46
0	93737	1379.46	1112.46
0	93738	1379.46	1111.46
0	93739	1379.46	1110.46
0	93740	1379.46	1109.46
0	93741	1379.46	1108.46
0	93742	1379.46	1107.46
0	93743	1379.46	1106.46
0	93744	1379.46	1105.46
0	93745	1379.46	1104.46
0	93746	1379.46	1103.46
0	93747	1379.46	1102.46
0	93748	1379.46	1101.46
0	93749	1379.46	1100.46
0	93750	1379.46	1099.46
0	93751	1379.46	1098.46
0	93752	1379.46	1097.46
0	93753	1379.46	1096.46
0	93754	1379.46	1095.46
0	93755	1379.46	1094.46
0	93756	1379.46	1093.46
0	93757	1379.46	1092.46
0	93758	1379.46	1091.46
0	93759	1379.46	1090.46
0	93760	1379.46	1089.46
0	93761	1379.46	1088.46
0	93762	1379.46	1087.46
0	93763	1379.46	1086.46
0	93764	1379.46	1085.46
0	93765	1379.46	1084.46
0	93766	1379.46	1083.46
0	93767	1379.46	1082.46
0	93768	1379.46	1081.46
0	93769	1379.46	1080.46
0	93770	1379.46	1079.46
0	93771	1379.46	1078.46
0	93772	1379.46	1077.46
0	93773	1379.46	1076.46
0	93774	1379.46	1075.46
0	93775	1379.46	1074.46
0	93776	1379.46	1073.46
0	93777	1379.46	1072.46
0	93778	1379.46	1071.46
0	93779	1379.46	1070.46
0	93780	1379.46	1069.46
0	93781	1379.46	1068.46
0	93782	1379.46	1067.46
0	93783	1379.46	1066.46
0	93784	1379.46	1065.46
0	93785	1379.46	1064.46
0	93786	1379.46	1063.46
0	93787	1379.46	1062.46
0	93788	1379.46	1061.46
0	93789	1379.46	1060.46
0	93790	1379.46	1059.46
0	93791	1379.46	1058.46
0	93792	1379.46	1057.46
0	93793	1379.46	1056.46
0	93794	1379.46	1055.46
0	93795	1379.46	1054.46
0	93796	1379.46	1053.46
0	93797	1379.46	1052.46
0	93798	1379.46	1051.46
0	93799	1379.46	1050.46
0	93800	1379.46	1049.46
0	93801	1379.46	1048.46
0	93802	1379.46	1047.46
0	93803	1379.46	1046.46
0	93804	1379.46	1045.46
0	93805	1379.46	1044.46
0	93806	1379.46	1043.46
0	93807	1379.46	1042.46
0	93808	1379.46	1041.46
0	93809	1379.46	1040.46
0	93810	1379.46	1039.46
0	93811	1379.46	1038.46
0	93812	1379.46	1037.46
0	93813	1379.46	1036.46
0	93814	1379.46	1035.46
0	93815	1379.46	1034.46
0	93816	1379.46	1033.46
0	93817	1379.46	1032.46
0	93818	1379.46	1031.46
0	93819	1379.46	1030.46
0	93820	1379.46	1029.46
0	93821	1379.46	1028.46
0	93822	1379.46	1027.46
0	93823	1379.46	1026.46
0	93824	1379.46	1025.46
0	93825	1379.46	1024.46
0	93826	1379.46	1023.46
0	93827	1379.46	1022.46
0	93828	1379.46	1021.46
0	93829	1379.46	1020.46
0	93830	1379.46	1019.46
0	93831	1379.46	1018.46
0	93832	1379.46	1017.46
0	93833	1379.46	1016.46
0	93834	1379.46	1015.46
0	93835	1379.46	1014.46
0	93836	1379.46	1013.46
0	93837	1379.46	1012.46
0	93838	1379.46	1011.46
0	93839	1379.46	1010.46
0	93840	1379.46	1009.46
0	93841	1379.46	1008.46
0	93842	1379.46	1007.46
0	93843	1379.46	1006.46
0	93844	1379.46	1005.46
0	93845	1379.46	1004.46
0	93846	1379.46	1003.46
0	93847	1379.46	1002.46
0	93848	1379.46	1001.46
0	93849	1379.46	1000.46
0	93850	1379.46	999.46
0	93851	1379.46	998.46
0	93852	1379.46	997.46
0	93853	1379.46	996.46
0	93854	1379.46	995.46
0	93855	1379.46	994.46
0	93856	1379.46	993.46
0	93857	1379.46	992.46
0	93858	1379.46	991.46
0	93859	1379.46	990.46
0	93860	1379.46	989.46
0	93861	1379.46	988.46
0	93862	1379.46	987.46
0	93863	1379.46	986.46
0	93864	1379.46	985.46
0	93865	1379.46	984.46
0	93866	1379.46	983.46
0	93867	1379.46	982.46
0	93868	1379.46	981.46
0	93869	1379.46	980.46
0	93870	1379.46	979.46
0	93871	1379.46	978.46
0	93872	1379.46	977.46
0	93873	1379.46	976.46
0	93874	1379.46	975.46
0	93875	1379.46	974.46
0	93876	1379.46	973.46
0	93877	1379.46	972.46
0	93878	1379.46	971.46
0	93879	1379.46	970.46
0	93880	1379.46	969.46
0	93881	1379.46	968.46
0	93882	1379.46	967.46
0	93883	1379.46	966.46
0	93884	1379.46	965.46
0	93885	1379.46	964.46
0	93886	1379.46	963.46
0	93887	1379.46	962.46
0	93888	1379.46	961.46
0	93889	1379.46	960.46
0	93890	1379.46	959.46
0	93891	1379.46	958.46
0	93892	1379.46	957.46
0	93893	1379.46	956.46
0	93894	1379.46	955.46
0	93895	1379.46	954.46
0	93896	1379.46	953.46
0	93897	1379.46	952.46
0	93898	1379.46	951.46
0	93899	1379.46	950.46
0	93900	1379.46	949.46
0	93901	1379.46	948.46
0	93902	1379.46	947.46
0	93903	1379.46	946.46
0	93904	1379.46	945.46
0	93905	1379.46	944.46
0	93906	1379.46	943.46
0	93907	1379.46	942.46
0	93908	1379.46	941.46
0	93909	1379.46	940.46
0	93910	1379.46	939.46
0	93911	1379.46	938.46
0	93912	1379.46	937.46
0	93913	1379.46	936.46
0	93914	1379.46	935.46
0	93915	1379.46	934.46
0	93916	1379.46	933.46
0	93917	1379.46	932.46
0	93918	1379.46	931.46
0	93919	1379.46	930.46
0	93920	1379.46	929.46
0	93921	1379.46	928.46
0	93922	1379.46	927.46
0	93923	1379.46	926.46
0	93924	1379.46	925.46
0	93925	1379.46	924.46
0	93926	1379.46	923.46
0	93927	1379.46	922.46
0	93928	1379.46	921.46
0	93929	1379.46	920.46
0	93930	1379.46	919.46
0	93931	1379.46	918.46
0	93932	1379.46	917.46
0	93933	1379.46	916.46
0	93934	1379.46	915.46
0	93935	1379.46	914.46
0	93936	1379.46	913.46
0	93937	1379.46	912.46
0	93938	1379.46	911.46
0	93939	1379.46	910.46
0	93940	1379.46	909.46
0	93941	1379.46	908.46
0	93942	1379.46	907.46
0	93943	1379.46	906.46
0	93944	1379.46	905.46
0	93945	1379.46	904.46
0	93946	1379.46	903.46
0	93947	1379.46	902.46
0	93948	1379.46	901.46
0	93949	1379.46	900.46
0	93950	1379.46	899.46
0	93951	1379.46	898.46
0	93952	1379.46	897.46
0	93953	1379.46	896.46
0	93954	1379.46	895.46
0	93955	1379.46	894.46
0	93956	1379.46	893.46
0	93957	1379.46	892.46
0	93958	1379.46	891.46
0	93959	1379.46	890.46
0	93960	1379.46	889.46
0	93961	1379.46	888.46
0	93962	1379.46	887.46
0	93963	1379.46	886.46
0	93964	1379.46	885.46
0	93965	1379.46	884.46
0	93966	1379.46	883.46
0	93967	1379.46	882.46
0	93968	1379.46	881.46
0	93969	1379.46	880.46
0	93970	1379.46	879.46
0	93971	1379.46	878.46
0	93972	1379.46	877.46
0	93973	1379.46	876.46
0	93974	1379.46	875.46
0	93975	1379.46	874.46
0	93976	1379.46	873.46
0	93977	1379.46	872.46
0	93978	1379.46	871.46
0	93979	1379.46	870.46
0	93980	1379.46	869.46
0	93981	1379.46	868.46
0	93982	1379.46	867.46
0	93983	1379.46	866.46
0	93984	1379.46	865.46
0	93985	1379.46	864.46
0	93986	1379.46	863.46
0	93987	1379.46	862.46
0	93988	1379.46	861.46
0	93989	1379.46	860.46
0	93990	1379.46	859.46
0	93991	1379.46	858.46
0	93992	1379.46	857.46
0	93993	1379.46	856.46
0	93994	1379.46	855.46
0	93995	1379.46	854.46
0	93996	1379.46	853.46
0	93997	1379.46	852.46
0	93998	1379.46	851.46
0	96694	1379.58	850.58
0	96695	1379.58	750.58
0	96789	1380.58	850.58
0	96790	1380.58	750.58
0	96884	1381.58	850.58
0	96885	1381.58	750.58
0	96979	1382.58	850.58
0	96980	1382.58	750.58
0	97074	1383.58	850.58
0	97075	1383.58	750.58
0	97169	1384.58	850.58
0	97170	1384.58	750.58
0	97264	1385.58	850.58
0	97265	1385.58	750.58
0	97359	1386.58	850.58
0	97360	1386.58	750.58
0	97454	1387.58	850.58
0	97455	1387.58	750.58
0	97549	1388.58	850.58
0	97550	1388.58	750.58
0	97644	1389.58	850.58
0	97645	1389.58	750.58
0	97739	1390.58	850.58
0	97740	1390.58	750.58
0	97834	1391.58	850.58
0	97835	1391.58	750.58
0	97929	1392.58	850.58
0	97930	1392.58	750.58
0	98024	1393.58	850.58
0	98025	1393.58	750.58
0	98119	1394.58	850.58
0	98120	1394.58	750.58
0	98214	1395.58	850.58
0	98215	1395.58	750.58
0	98309	1396.58	850.58
0	98310	1396.58	750.58
0	98404	1397.58	850.58
0	98405	1397.58	750.58
0	98499	1398.58	850.58
0	98500	1398.58	750.58
0	98594	1399.58	850.58
0	98595	1399.58	750.58
0	98689	1400.58	850.58
0	98690	1400.58	750.58
0	98784	1401.58	850.58
0	98785	1401.58	750.58
0	98879	1402.58	850.58
0	98880	1402.58	750.58
0	98974	1403.58	850.58
0	98975	1403.58	750.58
0	99069	1404.58	850.58
0	99070	1404.58	750.58
0	99164	1405.58	850.58
0	99165	1405.58	750.58
0	99259	1406.58	850.58
0	99260	1406.58	750.58
0	99354	1407.58	850.58
0	99355	1407.58	750.58
0	99449	1408.58	850.58
0	99450	1408.58	750.58
0	99544	1409.58	850.58
0	99545	1409.58	750.58
0	99639	1410.58	850.58
0	99640	1410.58	750.58
0	99734	1411.58	850.58
0	99735	1411.58	750.58
0	99829	1412.58	850.58
0	99830	1412.58	750.58
0	99924	1413.58	850.58
0	99925	1413.58	750.58
0	100019	1414.58	850.58
0	100020	1414.58	750.58
0	100114	1415.58	850.58
0	100115	1415.58	750.58
0	100209	1416.58	850.58
0	100210	1416.58	750.58
0	100304	1417.58	850.58
0	100305	1417.58	750.58
0	100399	1418.58	850.58
0	100400	1418.58	750.58
0	100494	1419.58	850.58
0	100495	1419.58	750.58
0	100589	1420.58	850.58
0	100590	1420.58	750.58
0	100684	1421.58	850.58
0	100685	1421.58	750.58
0	100779	1422.58	850.58
0	100780	1422.58	750.58
0	100874	1423.58	850.58
0	100875	1423.58	750.58
0	100969	1424.58	850.58
0	100970	1424.58	750.58
0	101064	1425.58	850.58
0	101065	1425.58	750.58
0	101159	1426.58	850.58
0	101160	1426.58	750.58
0	101254	1427.58	850.58
0	101255	1427.58	750.58
0	101349	1428.58	850.58
0	101350	1428.58	750.58
0	103567	1429.58	850.58
0	103568	1429.58	750.58
0	103666	1430.58	850.58
0	103667	1430.58	750.58
0	103765	1431.58	850.58
0	103766	1431.58	750.58
0	103864	1432.58	850.58
0	103865	1432.58	750.58
0	103963	1433.58	850.58
0	103964	1433.58	750.58
0	104062	1434.58	850.58
0	104063	1434.58	750.58
0	104161	1435.58	850.58
0	104162	1435.58	750.58
0	104260	1436.58	850.58
0	104261	1436.58	750.58
0	104359	1437.58	850.58
0	104360	1437.58	750.58
0	104458	1438.58	850.58
0	104459	1438.58	750.58
0	104557	1439.58	850.58
0	104558	1439.58	750.58
0	104656	1440.58	850.58
0	104657	1440.58	750.58
0	104755	1441.58	850.58
0	104756	1441.58	750.58
0	104854	1442.58	850.58
0	104855	1442.58	750.58
0	104953	1443.58	850.58
0	104954	1443.58	750.58
0	105052	1444.58	850.58
0	105053	1444.58	750.58
0	105151	1445.58	850.58
0	105152	1445.58	750.58
0	105250	1446.58	850.58
0	105251	1446.58	750.58
0	105349	1447.58	850.58
0	105350	1447.58	750.58
0	105448	1448.58	850.58
0	105449	1448.58	750.58
0	105547	1449.58	850.58
0	105548	1449.58	750.58
0	105646	1450.58	850.58
0	105647	1450.58	750.58
0	105745	1451.58	850.58
0	105746	1451.58	750.58
0	105844	1452.58	850.58
0	105845	1452.58	750.58
0	105943	1453.58	850.58
0	105944	1453.58	750.58
0	106042	1454.58	850.58
0	106043	1454.58	750.58
0	106141	1455.58	850.58
0	106142	1455.58	750.58
0	106240	1456.58	850.58
0	106241	1456.58	750.58
0	106339	1457.58	850.58
0	106340	1457.58	750.58
0	106438	1458.58	850.58
0	106439	1458.58	750.58
0	106537	1459.58	850.58
0	106538	1459.58	750.58
0	106636	1460.58	850.58
0	106637	1460.58	750.58
0	106735	1461.58	850.58
0	106736	1461.58	750.58
0	106834	1462.58	850.58
0	106835	1462.58	750.58
0	106933	1463.58	850.58
0	106934	1463.58	750.58
0	107032	1464.58	850.58
0	107033	1464.58	750.58
0	107131	1465.58	850.58
0	107132	1465.58	750.58
0	107230	1466.58	850.58
0	107231	1466.58	750.58
0	107329	1467.58	850.58
0	107330	1467.58	750.58
0	107428	1468.58	850.58
0	107429	1468.58	750.58
0	107527	1469.58	850.58
0	107528	1469.58	750.58
0	107626	1470.58	850.58
0	107627	1470.58	750.58
0	107725	1471.58	850.58
0	107726	1471.58	750.58
0	107824	1472.58	850.58
0	107825	1472.58	750.58
0	107923	1473.58	850.58
0	107924	1473.58	750.58
0	108022	1474.58	850.58
0	108023	1474.58	750.58
0	108121	1475.58	850.58
0	108122	1475.58	750.58
0	108220	1476.58	850.58
0	108221	1476.58	750.58
0	108319	1477.58	850.58
0	108320	1477.58	750.58
0	108418	1478.58	850.58
0	108419	1478.58	750.58
0	114292	1479.46	1479.46
0	114293	1479.46	1478.46
0	114294	1479.46	1477.46
0	114295	1479.46	1476.46
0	114296	1479.46	1475.46
0	114297	1479.46	1474.46
0	114298	1479.46	1473.46
0	114299	1479.46	1472.46
0	114300	1479.46	1471.46
0	114301	1479.46	1470.46
0	114302	1479.46	1469.46
0	114303	1479.46	1468.46
0	114304	1479.46	1467.46
0	114305	1479.46	1466.46
0	114306	1479.46	1465.46
0	114307	1479.46	1464.46
0	114308	1479.46	1463.46
0	114309	1479.46	1462.46
0	114310	1479.46	1461.46
0	114311	1479.46	1460.46
0	114312	1479.46	1459.46
0	114313	1479.46	1458.46
0	114314	1479.46	1457.46
0	114315	1479.46	1456.46
0	114316	1479.46	1455.46
0	114317	1479.46	1454.46
0	114318	1479.46	1453.46
0	114319	1479.46	1452.46
0	114320	1479.46	1451.46
0	114321	1479.46	1450.46
0	114322	1479.46	1449.46
0	114323	1479.46	1448.46
0	114324	1479.46	1447.46
0	114325	1479.46	1446.46
0	114326	1479.46	1445.46
0	114327	1479.46	1444.46
0	114328	1479.46	1443.46
0	114329	1479.46	1442.46
0	114330	1479.46	1441.46
0	114331	1479.46	1440.46
0	114332	1479.46	1439.46
0	114333	1479.46	1438.46
0	114334	1479.46	1437.46
0	114335	1479.46	1436.46
0	114336	1479.46	1435.46
0	114337	1479.46	1434.46
0	114338	1479.46	1433.46
0	114339	1479.46	1432.46
0	114340	1479.46	1431.46
0	114341	1479.46	1430.46
0	114342	1479.46	1429.46
0	114343	1479.46	1428.46
0	114344	1479.46	1427.46
0	114345	1479.46	1426.46
0	114346	1479.46	1425.46
0	114347	1479.46	1424.46
0	114348	1479.46	1423.46
0	114349	1479.46	1422.46
0	114350	1479.46	1421.46
0	114351	1479.46	1420.46
0	114352	1479.46	1419.46
0	114353	1479.46	1418.46
0	114354	1479.46	1417.46
0	114355	1479.46	1416.46
0	114356	1479.46	1415.46
0	114357	1479.46	1414.46
0	114358	1479.46	1413.46
0	114359	1479.46	1412.46
0	114360	1479.46	1411.46
0	114361	1479.46	1410.46
0	114362	1479.46	1409.46
0	114363	1479.46	1408.46
0	114364	1479.46	1407.46
0	114365	1479.46	1406.46
0	114366	1479.46	1405.46
0	114367	1479.46	1404.46
0	114368	1479.46	1403.46
0	114369	1479.46	1402.46
0	114370	1479.46	1401.46
0	114371	1479.46	1400.46
0	114372	1479.46	1399.46
0	114373	1479.46	1398.46
0	114374	1479.46	1397.46
0	114375	1479.46	1396.46
0	114376	1479.46	1395.46
0	114377	1479.46	1394.46
0	114378	1479.46	1393.46
0	114379	1479.46	1392.46
0	114380	1479.46	1391.46
0	114381	1479.46	1390.46
0	114382	1479.46	1389.46
0	114383	1479.46	1388.46
0	114384	1479.46	1387.46
0	114385	1479.46	1386.46
0	114386	1479.46	1385.46
0	114387	1479.46	1384.46
0	114388	1479.46	1383.46
0	114389	1479.46	1382.46
0	114390	1479.46	1381.46
0	114391	1479.46	1380.46
0	114392	1479.46	1379.46
0	114393	1479.46	1378.46
0	114394	1479.46	1377.46
0	114395	1479.46	1376.46
0	114396	1479.46	1375.46
0	114397	1479.46	1374.46
0	114398	1479.46	1373.46
0	114399	1479.46	1372.46
0	114400	1479.46	1371.46
0	114401	1479.46	1370.46
0	114402	1479.46	1369.46
0	114403	1479.46	1368.46
0	114404	1479.46	1367.46
0	114405	1479.46	1366.46
0	114406	1479.46	1365.46
0	114407	1479.46	1364.46
0	114408	1479.46	1363.46
0	114409	1479.46	1362.46
0	114410	1479.46	1361.46
0	114411	1479.46	1360.46
0	114412	1479.46	1359.46
0	114413	1479.46	1358.46
0	114414	1479.46	1357.46
0	114415	1479.46	1356.46
0	114416	1479.46	1355.46
0	114417	1479.46	1354.46
0	114418	1479.46	1353.46
0	114419	1479.46	1352.46
0	114420	1479.46	1351.46
0	114421	1479.46	1350.46
0	114422	1479.46	1349.46
0	114423	1479.46	1348.46
0	114424	1479.46	1347.46
0	114425	1479.46	1346.46
0	114426	1479.46	1345.46
0	114427	1479.46	1344.46
0	114428	1479.46	1343.46
0	114429	1479.46	1342.46
0	114430	1479.46	1341.46
0	114431	1479.46	1340.46
0	114432	1479.46	1339.46
0	114433	1479.46	1338.46
0	114434	1479.46	1337.46
0	114435	1479.46	1336.46
0	114436	1479.46	1335.46
0	114437	1479.46	1334.46
0	114438	1479.46	1333.46
0	114439	1479.46	1332.46
0	114440	1479.46	1331.46
0	114441	1479.46	1330.46
0	114442	1479.46	1329.46
0	114443	1479.46	1328.46
0	114444	1479.46	1327.46
0	114445	1479.46	1326.46
0	114446	1479.46	1325.46
0	114447	1479.46	1324.46
0	114448	1479.46	1323.46
0	114449	1479.46	1322.46
0	114450	1479.46	1321.46
0	114451	1479.46	1320.46
0	114452	1479.46	1319.46
0	114453	1479.46	1318.46
0	114454	1479.46	1317.46
0	114455	1479.46	1316.46
0	114456	1479.46	1315.46
0	114457	1479.46	1314.46
0	114458	1479.46	1313.46
0	114459	1479.46	1312.46
0	114460	1479.46	1311.46
0	114461	1479.46	1310.46
0	114462	1479.46	1309.46
0	114463	1479.46	1308.46
0	114464	1479.46	1307.46
0	114465	1479.46	1306.46
0	114466	1479.46	1305.46
0	114467	1479.46	1304.46
0	114468	1479.46	1303.46
0	114469	1479.46	1302.46
0	114470	1479.46	1301.46
0	114471	1479.46	1300.46
0	114472	1479.46	1299.46
0	114473	1479.46	1298.46
0	114474	1479.46	1297.46
0	114475	1479.46	1296.46
0	114476	1479.46	1295.46
0	114477	1479.46	1294.46
0	114478	1479.46	1293.46
0	114479	1479.46	1292.46
0	114480	1479.46	1291.46
0	114481	1479.46	1290.46
0	114482	1479.46	1289.46
0	114483	1479.46	1288.46
0	114484	1479.46	1287.46
0	114485	1479.46	1286.46
0	114486	1479.46	1285.46
0	114487	1479.46	1284.46
0	114488	1479.46	1283.46
0	114489	1479.46	1282.46
0	114490	1479.46	1281.46
0	114491	1479.46	1280.46
0	114492	1479.46	1279.46
0	114493	1479.46	1278.46
0	114494	1479.46	1277.46
0	114495	1479.46	1276.46
0	114496	1479.46	1275.46
0	114497	1479.46	1274.46
0	114498	1479.46	1273.46
0	114499	1479.46	1272.46
0	114500	1479.46	1271.46
0	114501	1479.46	1270.46
0	114502	1479.46	1269.46
0	114503	1479.46	1268.46
0	114504	1479.46	1267.46
0	114505	1479.46	1266.46
0	114506	1479.46	1265.46
0	114507	1479.46	1264.46
0	114508	1479.46	1263.46
0	114509	1479.46	1262.46
0	114510	1479.46	1261.46
0	114511	1479.46	1260.46
0	114512	1479.46	1259.46
0	114513	1479.46	1258.46
0	114514	1479.46	1257.46
0	114515	1479.46	1256.46
0	114516	1479.46	1255.46
0	114517	1479.46	1254.46
0	114518	1479.46	1253.46
0	114519	1479.46	1252.46
0	114520	1479.46	1251.46
0	114521	1479.46	1250.46
0	114522	1479.46	1249.46
0	114523	1479.46	1248.46
0	114524	1479.46	1247.46
0	114525	1479.46	1246.46
0	114526	1479.46	1245.46
0	114527	1479.46	1244.46
0	114528	1479.46	1243.46
0	114529	1479.46	1242.46
0	114530	1479.46	1241.46
0	114531	1479.46	1240.46
0	114532	1479.46	1239.46
0	114533	1479.46	1238.46
0	114534	1479.46	1237.46
0	114535	1479.46	1236.46
0	114536	1479.46	1235.46
0	114537	1479.46	1234.46
0	114538	1479.46	1233.46
0	114539	1479.46	1232.46
0	114540	1479.46	1231.46
0	114541	1479.46	1230.46
0	114542	1479.46	1229.46
0	114543	1479.46	1228.46
0	114544	1479.46	1227.46
0	114545	1479.46	1226.46
0	114546	1479.46	1225.46
0	114547	1479.46	1224.46
0	114548	1479.46	1223.46
0	114549	1479.46	1222.46
0	114550	1479.46	1221.46
0	114551	1479.46	1220.46
0	114552	1479.46	1219.46
0	114553	1479.46	1218.46
0	114554	1479.46	1217.46
0	114555	1479.46	1216.46
0	114556	1479.46	1215.46
0	114557	1479.46	1214.46
0	114558	1479.46	1213.46
0	114559	1479.46	1212.46
0	114560	1479.46	1211.46
0	114561	1479.46	1210.46
0	114562	1479.46	1209.46
0	114563	1479.46	1208.46
0	114564	1479.46	1207.46
0	114565	1479.46	1206.46
0	114566	1479.46	1205.46
0	114567	1479.46	1204.46
0	114568	1479.46	1203.46
0	114569	1479.46	1202.46
0	114570	1479.46	1201.46
0	114571	1479.46	1200.46
0	114572	1479.46	1199.46
0	114573	1479.46	1198.46
0	114574	1479.46	1197.46
0	114575	1479.46	1196.46
0	114576	1479.46	1195.46
0	114577	1479.46	1194.46
0	114578	1479.46	1193.46
0	114579	1479.46	1192.46
0	114580	1479.46	1191.46
0	114581	1479.46	1190.46
0	114582	1479.46	1189.46
0	114583	1479.46	1188.46
0	114584	1479.46	1187.46
0	114585	1479.46	1186.46
0	114586	1479.46	1185.46
0	114587	1479.46	1184.46
0	114588	1479.46	1183.46
0	114589	1479.46	1182.46
0	114590	1479.46	1181.46
0	114591	1479.46	1180.46
0	114592	1479.46	1179.46
0	114593	1479.46	1178.46
0	114594	1479.46	1177.46
0	114595	1479.46	1176.46
0	114596	1479.46	1175.46
0	114597	1479.46	1174.46
0	114598	1479.46	1173.46
0	114599	1479.46	1172.46
0	114600	1479.46	1171.46
0	114601	1479.46	1170.46
0	114602	1479.46	1169.46
0	114603	1479.46	1168.46
0	114604	1479.46	1167.46
0	114605	1479.46	1166.46
0	114606	1479.46	1165.46
0	114607	1479.46	1164.46
0	114608	1479.46	1163.46
0	114609	1479.46	1162.46
0	114610	1479.46	1161.46
0	114611	1479.46	1160.46
0	114612	1479.46	1159.46
0	114613	1479.46	1158.46
0	114614	1479.46	1157.46
0	114615	1479.46	1156.46
0	114616	1479.46	1155.46
0	114617	1479.46	1154.46
0	114618	1479.46	1153.46
0	114619	1479.46	1152.46
0	114620	1479.46	1151.46
0	114621	1479.46	1150.46
0	114622	1479.46	1149.46
0	114623	1479.46	1148.46
0	114624	1479.46	1147.46
0	114625	1479.46	1146.46
0	114626	1479.46	1145.46
0	114627	1479.46	1144.46
0	114628	1479.46	1143.46
0	114629	1479.46	1142.46
0	114630	1479.46	1141.46
0	114631	1479.46	1140.46
0	114632	1479.46	1139.46
0	114633	1479.46	1138.46
0	114634	1479.46	1137.46
0	114635	1479.46	1136.46
0	114636	1479.46	1135.46
0	114637	1479.46	1134.46
0	114638	1479.46	1133.46
0	114639	1479.46	1132.46
0	114640	1479.46	1131.46
0	114641	1479.46	1130.46
0	114642	1479.46	1129.46
0	114643	1479.46	1128.46
0	114644	1479.46	1127.46
0	114645	1479.46	1126.46
0	114646	1479.46	1125.46
0	114647	1479.46	1124.46
0	114648	1479.46	1123.46
0	114649	1479.46	1122.46
0	114650	1479.46	1121.46
0	114651	1479.46	1120.46
0	114652	1479.46	1119.46
0	114653	1479.46	1118.46
0	114654	1479.46	1117.46
0	114655	1479.46	1116.46
0	114656	1479.46	1115.46
0	114657	1479.46	1114.46
0	114658	1479.46	1113.46
0	114659	1479.46	1112.46
0	114660	1479.46	1111.46
0	114661	1479.46	1110.46
0	114662	1479.46	1109.46
0	114663	1479.46	1108.46
0	114664	1479.46	1107.46
0	114665	1479.46	1106.46
0	114666	1479.46	1105.46
0	114667	1479.46	1104.46
0	114668	1479.46	1103.46
0	114669	1479.46	1102.46
0	114670	1479.46	1101.46
0	114671	1479.46	1100.46
0	114672	1479.46	1099.46
0	114673	1479.46	1098.46
0	114674	1479.46	1097.46
0	114675	1479.46	1096.46
0	114676	1479.46	1095.46
0	114677	1479.46	1094.46
0	114678	1479.46	1093.46
0	114679	1479.46	1092.46
0	114680	1479.46	1091.46
0	114681	1479.46	1090.46
0	114682	1479.46	1089.46
0	114683	1479.46	1088.46
0	114684	1479.46	1087.46
0	114685	1479.46	1086.46
0	114686	1479.46	1085.46
0	114687	1479.46	1084.46
0	114688	1479.46	1083.46
0	114689	1479.46	1082.46
0	114690	1479.46	1081.46
0	114691	1479.46	1080.46
0	114692	1479.46	1079.46
0	114693	1479.46	1078.46
0	114694	1479.46	1077.46
0	114695	1479.46	1076.46
0	114696	1479.46	1075.46
0	114697	1479.46	1074.46
0	114698	1479.46	1073.46
0	114699	1479.46	1072.46
0	114700	1479.46	1071.46
0	114701	1479.46	1070.46
0	114702	1479.46	1069.46
0	114703	1479.46	1068.46
0	114704	1479.46	1067.46
0	114705	1479.46	1066.46
0	114706	1479.46	1065.46
0	114707	1479.46	1064.46
0	114708	1479.46	1063.46
0	114709	1479.46	1062.46
0	114710	1479.46	1061.46
0	114711	1479.46	1060.46
0	114712	1479.46	1059.46
0	114713	1479.46	1058.46
0	114714	1479.46	1057.46
0	114715	1479.46	1056.46
0	114716	1479.46	1055.46
0	114717	1479.46	1054.46
0	114718	1479.46	1053.46
0	114719	1479.46	1052.46
0	114720	1479.46	1051.46
0	114721	1479.46	1050.46
0	114722	1479.46	1049.46
0	114723	1479.46	1048.46
0	114724	1479.46	1047.46
0	114725	1479.46	1046.46
0	114726	1479.46	1045.46
0	114727	1479.46	1044.46
0	114728	1479.46	1043.46
0	114729	1479.46	1042.46
0	114730	1479.46	1041.46
0	114731	1479.46	1040.46
0	114732	1479.46	1039.46
0	114733	1479.46	1038.46
0	114734	1479.46	1037.46
0	114735	1479.46	1036.46
0	114736	1479.46	1035.46
0	114737	1479.46	1034.46
0	114738	1479.46	1033.46
0	114739	1479.46	1032.46
0	114740	1479.46	1031.46
0	114741	1479.46	1030.46
0	114742	1479.46	1029.46
0	114743	1479.46	1028.46
0	114744	1479.46	1027.46
0	114745	1479.46	1026.46
0	114746	1479.46	1025.46
0	114747	1479.46	1024.46
0	114748	1479.46	1023.46
0	114749	1479.46	1022.46
0	114750	1479.46	1021.46
0	114751	1479.46	1020.46
0	114752	1479.46	1019.46
0	114753	1479.46	1018.46
0	114754	1479.46	1017.46
0	114755	1479.46	1016.46
0	114756	1479.46	1015.46
0	114757	1479.46	1014.46
0	114758	1479.46	1013.46
0	114759	1479.46	1012.46
0	114760	1479.46	1011.46
0	114761	1479.46	1010.46
0	114762	1479.46	1009.46
0	114763	1479.46	1008.46
0	114764	1479.46	1007.46
0	114765	1479.46	1006.46
0	114766	1479.46	1005.46
0	114767	1479.46	1004.46
0	114768	1479.46	1003.46
0	114769	1479.46	1002.46
0	114770	1479.46	1001.46
0	114771	1479.46	1000.46
0	114772	1479.46	999.46
0	114773	1479.46	998.46
0	114774	1479.46	997.46
0	114775	1479.46	996.46
0	114776	1479.46	995.46
0	114777	1479.46	994.46
0	114778	1479.46	993.46
0	114779	1479.46	992.46
0	114780	1479.46	991.46
0	114781	1479.46	990.46
0	114782	1479.46	989.46
0	114783	1479.46	988.46
0	114784	1479.46	987.46
0	114785	1479.46	986.46
0	114786	1479.46	985.46
0	114787	1479.46	984.46
0	114788	1479.46	983.46
0	114789	1479.46	982.46
0	114790	1479.46	981.46
0	114791	1479.46	980.46
0	114792	1479.46	979.46
0	114793	1479.46	978.46
0	114794	1479.46	977.46
0	114795	1479.46	976.46
0	114796	1479.46	975.46
0	114797	1479.46	974.46
0	114798	1479.46	973.46
0	114799	1479.46	972.46
0	114800	1479.46	971.46
0	114801	1479.46	970.46
0	114802	1479.46	969.46
0	114803	1479.46	968.46
0	114804	1479.46	967.46
0	114805	1479.46	966.46
0	114806	1479.46	965.46
0	114807	1479.46	964.46
0	114808	1479.46	963.46
0	114809	1479.46	962.46
0	114810	1479.46	961.46
0	114811	1479.46	960.46
0	114812	1479.46	959.46
0	114813	1479.46	958.46
0	114814	1479.46	957.46
0	114815	1479.46	956.46
0	114816	1479.46	955.46
0	114817	1479.46	954.46
0	114818	1479.46	953.46
0	114819	1479.46	952.46
0	114820	1479.46	951.46
0	117527	1479.58	950.58
0	117528	1479.58	850.58
0	117529	1479.58	750.58
0	117643	1480.58	950.58
0	117644	1480.58	850.58
0	117645	1480.58	750.58
0	117759	1481.58	950.58
0	117760	1481.58	850.58
0	117761	1481.58	750.58
0	117875	1482.58	950.58
0	117876	1482.58	850.58
0	117877	1482.58	750.58
0	117991	1483.58	950.58
0	117992	1483.58	850.58
0	117993	1483.58	750.58
0	118107	1484.58	950.58
0	118108	1484.58	850.58
0	118109	1484.58	750.58
0	118223	1485.58	950.58
0	118224	1485.58	850.58
0	118225	1485.58	750.58
0	118339	1486.58	950.58
0	118340	1486.58	850.58
0	118341	1486.58	750.58
0	118455	1487.58	950.58
0	118456	1487.58	850.58
0	118457	1487.58	750.58
0	118571	1488.58	950.58
0	118572	1488.58	850.58
0	118573	1488.58	750.58
0	118687	1489.58	950.58
0	118688	1489.58	850.58
0	118689	1489.58	750.58
0	118803	1490.58	950.58
0	118804	1490.58	850.58
0	118805	1490.58	750.58
0	118919	1491.58	950.58
0	118920	1491.58	850.58
0	118921	1491.58	750.58
0	119035	1492.58	950.58
0	119036	1492.58	850.58
0	119037	1492.58	750.58
0	119151	1493.58	950.58
0	119152	1493.58	850.58
0	119153	1493.58	750.58
0	119267	1494.58	950.58
0	119268	1494.58	850.58
0	119269	1494.58	750.58
0	119383	1495.58	950.58
0	119384	1495.58	850.58
0	119385	1495.58	750.58
0	119499	1496.58	950.58
0	119500	1496.58	850.58
0	119501	1496.58	750.58
0	119615	1497.58	950.58
0	119616	1497.58	850.58
0	119617	1497.58	750.58
0	119731	1498.58	950.58
0	119732	1498.58	850.58
0	119733	1498.58	750.58
0	119847	1499.58	950.58
0	119848	1499.58	850.58
0	119849	1499.58	750.58
0	119963	1500.58	950.58
0	119964	1500.58	850.58
0	119965	1500.58	750.58
0	120079	1501.58	950.58
0	120080	1501.58	850.58
0	120081	1501.58	750.58
0	120195	1502.58	950.58
0	120196	1502.58	850.58
0	120197	1502.58	750.58
0	120311	1503.58	950.58
0	120312	1503.58	850.58
0	120313	1503.58	750.58
0	120427	1504.58	950.58
0	120428	1504.58	850.58
0	120429	1504.58	750.58
0	120543	1505.58	950.58
0	120544	1505.58	850.58
0	120545	1505.58	750.58
0	120659	1506.58	950.58
0	120660	1506.58	850.58
0	120661	1506.58	750.58
0	120775	1507.58	950.58
0	120776	1507.58	850.58
0	120777	1507.58	750.58
0	120891	1508.58	950.58
0	120892	1508.58	850.58
0	120893	1508.58	750.58
0	121007	1509.58	950.58
0	121008	1509.58	850.58
0	121009	1509.58	750.58
0	121123	1510.58	950.58
0	121124	1510.58	850.58
0	121125	1510.58	750.58
0	121239	1511.58	950.58
0	121240	1511.58	850.58
0	121241	1511.58	750.58
0	121355	1512.58	950.58
0	121356	1512.58	850.58
0	121357	1512.58	750.58
0	121471	1513.58	950.58
0	121472	1513.58	850.58
0	121473	1513.58	750.58
0	121587	1514.58	950.58
0	121588	1514.58	850.58
0	121589	1514.58	750.58
0	121703	1515.58	950.58
0	121704	1515.58	850.58
0	121705	1515.58	750.58
0	121819	1516.58	950.58
0	121820	1516.58	850.58
0	121821	1516.58	750.58
0	121935	1517.58	950.58
0	121936	1517.58	850.58
0	121937	1517.58	750.58
0	122051	1518.58	950.58
0	122052	1518.58	850.58
0	122053	1518.58	750.58
0	122167	1519.58	950.58
0	122168	1519.58	850.58
0	122169	1519.58	750.58
0	122283	1520.58	950.58
0	122284	1520.58	850.58
0	122285	1520.58	750.58
0	122399	1521.58	950.58
0	122400	1521.58	850.58
0	122401	1521.58	750.58
0	122515	1522.58	950.58
0	122516	1522.58	850.58
0	122517	1522.58	750.58
0	122631	1523.58	950.58
0	122632	1523.58	850.58
0	122633	1523.58	750.58
0	122747	1524.58	950.58
0	122748	1524.58	850.58
0	122749	1524.58	750.58
0	122863	1525.58	950.58
0	122864	1525.58	850.58
0	122865	1525.58	750.58
0	122979	1526.58	950.58
0	122980	1526.58	850.58
0	122981	1526.58	750.58
0	123095	1527.58	950.58
0	123096	1527.58	850.58
0	123097	1527.58	750.58
0	123211	1528.58	950.58
0	123212	1528.58	850.58
0	123213	1528.58	750.58
0	125450	1529.58	950.58
0	125451	1529.58	850.58
0	125452	1529.58	750.58
0	125570	1530.58	950.58
0	125571	1530.58	850.58
0	125572	1530.58	750.58
0	125690	1531.58	950.58
0	125691	1531.58	850.58
0	125692	1531.58	750.58
0	125810	1532.58	950.58
0	125811	1532.58	850.58
0	125812	1532.58	750.58
0	125930	1533.58	950.58
0	125931	1533.58	850.58
0	125932	1533.58	750.58
0	126050	1534.58	950.58
0	126051	1534.58	850.58
0	126052	1534.58	750.58
0	126170	1535.58	950.58
0	126171	1535.58	850.58
0	126172	1535.58	750.58
0	126290	1536.58	950.58
0	126291	1536.58	850.58
0	126292	1536.58	750.58
0	126410	1537.58	950.58
0	126411	1537.58	850.58
0	126412	1537.58	750.58
0	126530	1538.58	950.58
0	126531	1538.58	850.58
0	126532	1538.58	750.58
0	126650	1539.58	950.58
0	126651	1539.58	850.58
0	126652	1539.58	750.58
0	126770	1540.58	950.58
0	126771	1540.58	850.58
0	126772	1540.58	750.58
0	126890	1541.58	950.58
0	126891	1541.58	850.58
0	126892	1541.58	750.58
0	127010	1542.58	950.58
0	127011	1542.58	850.58
0	127012	1542.58	750.58
0	127130	1543.58	950.58
0	127131	1543.58	850.58
0	127132	1543.58	750.58
0	127250	1544.58	950.58
0	127251	1544.58	850.58
0	127252	1544.58	750.58
0	127370	1545.58	950.58
0	127371	1545.58	850.58
0	127372	1545.58	750.58
0	127490	1546.58	950.58
0	127491	1546.58	850.58
0	127492	1546.58	750.58
0	127610	1547.58	950.58
0	127611	1547.58	850.58
0	127612	1547.58	750.58
0	127730	1548.58	950.58
0	127731	1548.58	850.58
0	127732	1548.58	750.58
0	127850	1549.58	950.58
0	127851	1549.58	850.58
0	127852	1549.58	750.58
0	127970	1550.58	950.58
0	127971	1550.58	850.58
0	127972	1550.58	750.58
0	128090	1551.58	950.58
0	128091	1551.58	850.58
0	128092	1551.58	750.58
0	128210	1552.58	950.58
0	128211	1552.58	850.58
0	128212	1552.58	750.58
0	128330	1553.58	950.58
0	128331	1553.58	850.58
0	128332	1553.58	750.58
0	128450	1554.58	950.58
0	128451	1554.58	850.58
0	128452	1554.58	750.58
0	128570	1555.58	950.58
0	128571	1555.58	850.58
0	128572	1555.58	750.58
0	128690	1556.58	950.58
0	128691	1556.58	850.58
0	128692	1556.58	750.58
0	128810	1557.58	950.58
0	128811	1557.58	850.58
0	128812	1557.58	750.58
0	128930	1558.58	950.58
0	128931	1558.58	850.58
0	128932	1558.58	750.58
0	129050	1559.58	950.58
0	129051	1559.58	850.58
0	129052	1559.58	750.58
0	129170	1560.58	950.58
0	129171	1560.58	850.58
0	129172	1560.58	750.58
0	129290	1561.58	950.58
0	129291	1561.58	850.58
0	129292	1561.58	750.58
0	129410	1562.58	950.58
0	129411	1562.58	850.58
0	129412	1562.58	750.58
0	129530	1563.58	950.58
0	129531	1563.58	850.58
0	129532	1563.58	750.58
0	129650	1564.58	950.58
0	129651	1564.58	850.58
0	129652	1564.58	750.58
0	129770	1565.58	950.58
0	129771	1565.58	850.58
0	129772	1565.58	750.58
0	129890	1566.58	950.58
0	129891	1566.58	850.58
0	129892	1566.58	750.58
0	130010	1567.58	950.58
0	130011	1567.58	850.58
0	130012	1567.58	750.58
0	130130	1568.58	950.58
0	130131	1568.58	850.58
0	130132	1568.58	750.58
0	130250	1569.58	950.58
0	130251	1569.58	850.58
0	130252	1569.58	750.58
0	130370	1570.58	950.58
0	130371	1570.58	850.58
0	130372	1570.58	750.58
0	130490	1571.58	950.58
0	130491	1571.58	850.58
0	130492	1571.58	750.58
0	130610	1572.58	950.58
0	130611	1572.58	850.58
0	130612	1572.58	750.58
0	130730	1573.58	950.58
0	130731	1573.58	850.58
0	130732	1573.58	750.58
0	130850	1574.58	950.58
0	130851	1574.58	850.58
0	130852	1574.58	750.58
0	130970	1575.58	950.58
0	130971	1575.58	850.58
0	130972	1575.58	750.58
0	131090	1576.58	950.58
0	131091	1576.58	850.58
0	131092	1576.58	750.58
0	131210	1577.58	950.58
0	131211	1577.58	850.58
0	131212	1577.58	750.58
0	131330	1578.58	950.58
0	131331	1578.58	850.58
0	131332	1578.58	750.58
0	137214	1579.46	1579.46
0	137215	1579.46	1578.46
0	137216	1579.46	1577.46
0	137217	1579.46	1576.46
0	137218	1579.46	1575.46
0	137219	1579.46	1574.46
0	137220	1579.46	1573.46
0	137221	1579.46	1572.46
0	137222	1579.46	1571.46
0	137223	1579.46	1570.46
0	137224	1579.46	1569.46
0	137225	1579.46	1568.46
0	137226	1579.46	1567.46
0	137227	1579.46	1566.46
0	137228	1579.46	1565.46
0	137229	1579.46	1564.46
0	137230	1579.46	1563.46
0	137231	1579.46	1562.46
0	137232	1579.46	1561.46
0	137233	1579.46	1560.46
0	137234	1579.46	1559.46
0	137235	1579.46	1558.46
0	137236	1579.46	1557.46
0	137237	1579.46	1556.46
0	137238	1579.46	1555.46
0	137239	1579.46	1554.46
0	137240	1579.46	1553.46
0	137241	1579.46	1552.46
0	137242	1579.46	1551.46
0	137243	1579.46	1550.46
0	137244	1579.46	1549.46
0	137245	1579.46	1548.46
0	137246	1579.46	1547.46
0	137247	1579.46	1546.46
0	137248	1579.46	1545.46
0	137249	1579.46	1544.46
0	137250	1579.46	1543.46
0	137251	1579.46	1542.46
0	137252	1579.46	1541.46
0	137253	1579.46	1540.46
0	137254	1579.46	1539.46
0	137255	1579.46	1538.46
0	137256	1579.46	1537.46
0	137257	1579.46	1536.46
0	137258	1579.46	1535.46
0	137259	1579.46	1534.46
0	137260	1579.46	1533.46
0	137261	1579.46	1532.46
0	137262	1579.46	1531.46
0	137263	1579.46	1530.46
0	137264	1579.46	1529.46
0	137265	1579.46	1528.46
0	137266	1579.46	1527.46
0	137267	1579.46	1526.46
0	137268	1579.46	1525.46
0	137269	1579.46	1524.46
0	137270	1579.46	1523.46
0	137271	1579.46	1522.46
0	137272	1579.46	1521.46
0	137273	1579.46	1520.46
0	137274	1579.46	1519.46
0	137275	1579.46	1518.46
0	137276	1579.46	1517.46
0	137277	1579.46	1516.46
0	137278	1579.46	1515.46
0	137279	1579.46	1514.46
0	137280	1579.46	1513.46
0	137281	1579.46	1512.46
0	137282	1579.46	1511.46
0	137283	1579.46	1510.46
0	137284	1579.46	1509.46
0	137285	1579.46	1508.46
0	137286	1579.46	1507.46
0	137287	1579.46	1506.46
0	137288	1579.46	1505.46
0	137289	1579.46	1504.46
0	137290	1579.46	1503.46
0	137291	1579.46	1502.46
0	137292	1579.46	1501.46
0	137293	1579.46	1500.46
0	137294	1579.46	1499.46
0	137295	1579.46	1498.46
0	137296	1579.46	1497.46
0	137297	1579.46	1496.46
0	137298	1579.46	1495.46
0	137299	1579.46	1494.46
0	137300	1579.46	1493.46
0	137301	1579.46	1492.46
0	137302	1579.46	1491.46
0	137303	1579.46	1490.46
0	137304	1579.46	1489.46
0	137305	1579.46	1488.46
0	137306	1579.46	1487.46
0	137307	1579.46	1486.46
0	137308	1579.46	1485.46
0	137309	1579.46	1484.46
0	137310	1579.46	1483.46
0	137311	1579.46	1482.46
0	137312	1579.46	1481.46
0	137313	1579.46	1480.46
0	137314	1579.46	1479.46
0	137315	1579.46	1478.46
0	137316	1579.46	1477.46
0	137317	1579.46	1476.46
0	137318	1579.46	1475.46
0	137319	1579.46	1474.46
0	137320	1579.46	1473.46
0	137321	1579.46	1472.46
0	137322	1579.46	1471.46
0	137323	1579.46	1470.46
0	137324	1579.46	1469.46
0	137325	1579.46	1468.46
0	137326	1579.46	1467.46
0	137327	1579.46	1466.46
0	137328	1579.46	1465.46
0	137329	1579.46	1464.46
0	137330	1579.46	1463.46
0	137331	1579.46	1462.46
0	137332	1579.46	1461.46
0	137333	1579.46	1460.46
0	137334	1579.46	1459.46
0	137335	1579.46	1458.46
0	137336	1579.46	1457.46
0	137337	1579.46	1456.46
0	137338	1579.46	1455.46
0	137339	1579.46	1454.46
0	137340	1579.46	1453.46
0	137341	1579.46	1452.46
0	137342	1579.46	1451.46
0	137343	1579.46	1450.46
0	137344	1579.46	1449.46
0	137345	1579.46	1448.46
0	137346	1579.46	1447.46
0	137347	1579.46	1446.46
0	137348	1579.46	1445.46
0	137349	1579.46	1444.46
0	137350	1579.46	1443.46
0	137351	1579.46	1442.46
0	137352	1579.46	1441.46
0	137353	1579.46	1440.46
0	137354	1579.46	1439.46
0	137355	1579.46	1438.46
0	137356	1579.46	1437.46
0	137357	1579.46	1436.46
0	137358	1579.46	1435.46
0	137359	1579.46	1434.46
0	137360	1579.46	1433.46
0	137361	1579.46	1432.46
0	137362	1579.46	1431.46
0	137363	1579.46	1430.46
0	137364	1579.46	1429.46
0	137365	1579.46	1428.46
0	137366	1579.46	1427.46
0	137367	1579.46	1426.46
0	137368	1579.46	1425.46
0	137369	1579.46	1424.46
0	137370	1579.46	1423.46
0	137371	1579.46	1422.46
0	137372	1579.46	1421.46
0	137373	1579.46	1420.46
0	137374	1579.46	1419.46
0	137375	1579.46	1418.46
0	137376	1579.46	1417.46
0	137377	1579.46	1416.46
0	137378	1579.46	1415.46
0	137379	1579.46	1414.46
0	137380	1579.46	1413.46
0	137381	1579.46	1412.46
0	137382	1579.46	1411.46
0	137383	1579.46	1410.46
0	137384	1579.46	1409.46
0	137385	1579.46	1408.46
0	137386	1579.46	1407.46
0	137387	1579.46	1406.46
0	137388	1579.46	1405.46
0	137389	1579.46	1404.46
0	137390	1579.46	1403.46
0	137391	1579.46	1402.46
0	137392	1579.46	1401.46
0	137393	1579.46	1400.46
0	137394	1579.46	1399.46
0	137395	1579.46	1398.46
0	137396	1579.46	1397.46
0	137397	1579.46	1396.46
0	137398	1579.46	1395.46
0	137399	1579.46	1394.46
0	137400	1579.46	1393.46
0	137401	1579.46	1392.46
0	137402	1579.46	1391.46
0	137403	1579.46	1390.46
0	137404	1579.46	1389.46
0	137405	1579.46	1388.46
0	137406	1579.46	1387.46
0	137407	1579.46	1386.46
0	137408	1579.46	1385.46
0	137409	1579.46	1384.46
0	137410	1579.46	1383.46
0	137411	1579.46	1382.46
0	137412	1579.46	1381.46
0	137413	1579.46	1380.46
0	137414	1579.46	1379.46
0	137415	1579.46	1378.46
0	137416	1579.46	1377.46
0	137417	1579.46	1376.46
0	137418	1579.46	1375.46
0	137419	1579.46	1374.46
0	137420	1579.46	1373.46
0	137421	1579.46	1372.46
0	137422	1579.46	1371.46
0	137423	1579.46	1370.46
0	137424	1579.46	1369.46
0	137425	1579.46	1368.46
0	137426	1579.46	1367.46
0	137427	1579.46	1366.46
0	137428	1579.46	1365.46
0	137429	1579.46	1364.46
0	137430	1579.46	1363.46
0	137431	1579.46	1362.46
0	137432	1579.46	1361.46
0	137433	1579.46	1360.46
0	137434	1579.46	1359.46
0	137435	1579.46	1358.46
0	137436	1579.46	1357.46
0	137437	1579.46	1356.46
0	137438	1579.46	1355.46
0	137439	1579.46	1354.46
0	137440	1579.46	1353.46
0	137441	1579.46	1352.46
0	137442	1579.46	1351.46
0	137443	1579.46	1350.46
0	137444	1579.46	1349.46
0	137445	1579.46	1348.46
0	137446	1579.46	1347.46
0	137447	1579.46	1346.46
0	137448	1579.46	1345.46
0	137449	1579.46	1344.46
0	137450	1579.46	1343.46
0	137451	1579.46	1342.46
0	137452	1579.46	1341.46
0	137453	1579.46	1340.46
0	137454	1579.46	1339.46
0	137455	1579.46	1338.46
0	137456	1579.46	1337.46
0	137457	1579.46	1336.46
0	137458	1579.46	1335.46
0	137459	1579.46	1334.46
0	137460	1579.46	1333.46
0	137461	1579.46	1332.46
0	137462	1579.46	1331.46
0	137463	1579.46	1330.46
0	137464	1579.46	1329.46
0	137465	1579.46	1328.46
0	137466	1579.46	1327.46
0	137467	1579.46	1326.46
0	137468	1579.46	1325.46
0	137469	1579.46	1324.46
0	137470	1579.46	1323.46
0	137471	1579.46	1322.46
0	137472	1579.46	1321.46
0	137473	1579.46	1320.46
0	137474	1579.46	1319.46
0	137475	1579.46	1318.46
0	137476	1579.46	1317.46
0	137477	1579.46	1316.46
0	137478	1579.46	1315.46
0	137479	1579.46	1314.46
0	137480	1579.46	1313.46
0	137481	1579.46	1312.46
0	137482	1579.46	1311.46
0	137483	1579.46	1310.46
0	137484	1579.46	1309.46
0	137485	1579.46	1308.46
0	137486	1579.46	1307.46
0	137487	1579.46	1306.46
0	137488	1579.46	1305.46
0	137489	1579.46	1304.46
0	137490	1579.46	1303.46
0	137491	1579.46	1302.46
0	137492	1579.46	1301.46
0	137493	1579.46	1300.46
0	137494	1579.46	1299.46
0	137495	1579.46	1298.46
0	137496	1579.46	1297.46
0	137497	1579.46	1296.46
0	137498	1579.46	1295.46
0	137499	1579.46	1294.46
0	137500	1579.46	1293.46
0	137501	1579.46	1292.46
0	137502	1579.46	1291.46
0	137503	1579.46	1290.46
0	137504	1579.46	1289.46
0	137505	1579.46	1288.46
0	137506	1579.46	1287.46
0	137507	1579.46	1286.46
0	137508	1579.46	1285.46
0	137509	1579.46	1284.46
0	137510	1579.46	1283.46
0	137511	1579.46	1282.46
0	137512	1579.46	1281.46
0	137513	1579.46	1280.46
0	137514	1579.46	1279.46
0	137515	1579.46	1278.46
0	137516	1579.46	1277.46
0	137517	1579.46	1276.46
0	137518	1579.46	1275.46
0	137519	1579.46	1274.46
0	137520	1579.46	1273.46
0	137521	1579.46	1272.46
0	137522	1579.46	1271.46
0	137523	1579.46	1270.46
0	137524	1579.46	1269.46
0	137525	1579.46	1268.46
0	137526	1579.46	1267.46
0	137527	1579.46	1266.46
0	137528	1579.46	1265.46
0	137529	1579.46	1264.46
0	137530	1579.46	1263.46
0	137531	1579.46	1262.46
0	137532	1579.46	1261.46
0	137533	1579.46	1260.46
0	137534	1579.46	1259.46
0	137535	1579.46	1258.46
0	137536	1579.46	1257.46
0	137537	1579.46	1256.46
0	137538	1579.46	1255.46
0	137539	1579.46	1254.46
0	137540	1579.46	1253.46
0	137541	1579.46	1252.46
0	137542	1579.46	1251.46
0	137543	1579.46	1250.46
0	137544	1579.46	1249.46
0	137545	1579.46	1248.46
0	137546	1579.46	1247.46
0	137547	1579.46	1246.46
0	137548	1579.46	1245.46
0	137549	1579.46	1244.46
0	137550	1579.46	1243.46
0	137551	1579.46	1242.46
0	137552	1579.46	1241.46
0	137553	1579.46	1240.46
0	137554	1579.46	1239.46
0	137555	1579.46	1238.46
0	137556	1579.46	1237.46
0	137557	1579.46	1236.46
0	137558	1579.46	1235.46
0	137559	1579.46	1234.46
0	137560	1579.46	1233.46
0	137561	1579.46	1232.46
0	137562	1579.46	1231.46
0	137563	1579.46	1230.46
0	137564	1579.46	1229.46
0	137565	1579.46	1228.46
0	137566	1579.46	1227.46
0	137567	1579.46	1226.46
0	137568	1579.46	1225.46
0	137569	1579.46	1224.46
0	137570	1579.46	1223.46
0	137571	1579.46	1222.46
0	137572	1579.46	1221.46
0	137573	1579.46	1220.46
0	137574	1579.46	1219.46
0	137575	1579.46	1218.46
0	137576	1579.46	1217.46
0	137577	1579.46	1216.46
0	137578	1579.46	1215.46
0	137579	1579.46	1214.46
0	137580	1579.46	1213.46
0	137581	1579.46	1212.46
0	137582	1579.46	1211.46
0	137583	1579.46	1210.46
0	137584	1579.46	1209.46
0	137585	1579.46	1208.46
0	137586	1579.46	1207.46
0	137587	1579.46	1206.46
0	137588	1579.46	1205.46
0	137589	1579.46	1204.46
0	137590	1579.46	1203.46
0	137591	1579.46	1202.46
0	137592	1579.46	1201.46
0	137593	1579.46	1200.46
0	137594	1579.46	1199.46
0	137595	1579.46	1198.46
0	137596	1579.46	1197.46
0	137597	1579.46	1196.46
0	137598	1579.46	1195.46
0	137599	1579.46	1194.46
0	137600	1579.46	1193.46
0	137601	1579.46	1192.46
0	137602	1579.46	1191.46
0	137603	1579.46	1190.46
0	137604	1579.46	1189.46
0	137605	1579.46	1188.46
0	137606	1579.46	1187.46
0	137607	1579.46	1186.46
0	137608	1579.46	1185.46
0	137609	1579.46	1184.46
0	137610	1579.46	1183.46
0	137611	1579.46	1182.46
0	137612	1579.46	1181.46
0	137613	1579.46	1180.46
0	137614	1579.46	1179.46
0	137615	1579.46	1178.46
0	137616	1579.46	1177.46
0	137617	1579.46	1176.46
0	137618	1579.46	1175.46
0	137619	1579.46	1174.46
0	137620	1579.46	1173.46
0	137621	1579.46	1172.46
0	137622	1579.46	1171.46
0	137623	1579.46	1170.46
0	137624	1579.46	1169.46
0	137625	1579.46	1168.46
0	137626	1579.46	1167.46
0	137627	1579.46	1166.46
0	137628	1579.46	1165.46
0	137629	1579.46	1164.46
0	137630	1579.46	1163.46
0	137631	1579.46	1162.46
0	137632	1579.46	1161.46
0	137633	1579.46	1160.46
0	137634	1579.46	1159.46
0	137635	1579.46	1158.46
0	137636	1579.46	1157.46
0	137637	1579.46	1156.46
0	137638	1579.46	1155.46
0	137639	1579.46	1154.46
0	137640	1579.46	1153.46
0	137641	1579.46	1152.46
0	137642	1579.46	1151.46
0	137643	1579.46	1150.46
0	137644	1579.46	1149.46
0	137645	1579.46	1148.46
0	137646	1579.46	1147.46
0	137647	1579.46	1146.46
0	137648	1579.46	1145.46
0	137649	1579.46	1144.46
0	137650	1579.46	1143.46
0	137651	1579.46	1142.46
0	137652	1579.46	1141.46
0	137653	1579.46	1140.46
0	137654	1579.46	1139.46
0	137655	1579.46	1138.46
0	137656	1579.46	1137.46
0	137657	1579.46	1136.46
0	137658	1579.46	1135.46
0	137659	1579.46	1134.46
0	137660	1579.46	1133.46
0	137661	1579.46	1132.46
0	137662	1579.46	1131.46
0	137663	1579.46	1130.46
0	137664	1579.46	1129.46
0	137665	1579.46	1128.46
0	137666	1579.46	1127.46
0	137667	1579.46	1126.46
0	137668	1579.46	1125.46
0	137669	1579.46	1124.46
0	137670	1579.46	1123.46
0	137671	1579.46	1122.46
0	137672	1579.46	1121.46
0	137673	1579.46	1120.46
0	137674	1579.46	1119.46
0	137675	1579.46	1118.46
0	137676	1579.46	1117.46
0	137677	1579.46	1116.46
0	137678	1579.46	1115.46
0	137679	1579.46	1114.46
0	137680	1579.46	1113.46
0	137681	1579.46	1112.46
0	137682	1579.46	1111.46
0	137683	1579.46	1110.46
0	137684	1579.46	1109.46
0	137685	1579.46	1108.46
0	137686	1579.46	1107.46
0	137687	1579.46	1106.46
0	137688	1579.46	1105.46
0	137689	1579.46	1104.46
0	137690	1579.46	1103.46
0	137691	1579.46	1102.46
0	137692	1579.46	1101.46
0	137693	1579.46	1100.46
0	137694	1579.46	1099.46
0	137695	1579.46	1098.46
0	137696	1579.46	1097.46
0	137697	1579.46	1096.46
0	137698	1579.46	1095.46
0	137699	1579.46	1094.46
0	137700	1579.46	1093.46
0	137701	1579.46	1092.46
0	137702	1579.46	1091.46
0	137703	1579.46	1090.46
0	137704	1579.46	1089.46
0	137705	1579.46	1088.46
0	137706	1579.46	1087.46
0	137707	1579.46	1086.46
0	137708	1579.46	1085.46
0	137709	1579.46	1084.46
0	137710	1579.46	1083.46
0	137711	1579.46	1082.46
0	137712	1579.46	1081.46
0	137713	1579.46	1080.46
0	137714	1579.46	1079.46
0	137715	1579.46	1078.46
0	137716	1579.46	1077.46
0	137717	1579.46	1076.46
0	137718	1579.46	1075.46
0	137719	1579.46	1074.46
0	137720	1579.46	1073.46
0	137721	1579.46	1072.46
0	137722	1579.46	1071.46
0	137723	1579.46	1070.46
0	137724	1579.46	1069.46
0	137725	1579.46	1068.46
0	137726	1579.46	1067.46
0	137727	1579.46	1066.46
0	137728	1579.46	1065.46
0	137729	1579.46	1064.46
0	137730	1579.46	1063.46
0	137731	1579.46	1062.46
0	137732	1579.46	1061.46
0	137733	1579.46	1060.46
0	137734	1579.46	1059.46
0	137735	1579.46	1058.46
0	137736	1579.46	1057.46
0	137737	1579.46	1056.46
0	137738	1579.46	1055.46
0	137739	1579.46	1054.46
0	137740	1579.46	1053.46
0	137741	1579.46	1052.46
0	137742	1579.46	1051.46
0	140460	1579.58	1050.58
0	140461	1579.58	950.58
0	140462	1579.58	850.58
0	140463	1579.58	750.58
0	140597	1580.58	1050.58
0	140598	1580.58	950.58
0	140599	1580.58	850.58
0	140600	1580.58	750.58
0	140734	1581.58	1050.58
0	140735	1581.58	950.58
0	140736	1581.58	850.58
0	140737	1581.58	750.58
0	140871	1582.58	1050.58
0	140872	1582.58	950.58
0	140873	1582.58	850.58
0	140874	1582.58	750.58
0	141008	1583.58	1050.58
0	141009	1583.58	950.58
0	141010	1583.58	850.58
0	141011	1583.58	750.58
0	141145	1584.58	1050.58
0	141146	1584.58	950.58
0	141147	1584.58	850.58
0	141148	1584.58	750.58
0	141282	1585.58	1050.58
0	141283	1585.58	950.58
0	141284	1585.58	850.58
0	141285	1585.58	750.58
0	141419	1586.58	1050.58
0	141420	1586.58	950.58
0	141421	1586.58	850.58
0	141422	1586.58	750.58
0	141556	1587.58	1050.58
0	141557	1587.58	950.58
0	141558	1587.58	850.58
0	141559	1587.58	750.58
0	141693	1588.58	1050.58
0	141694	1588.58	950.58
0	141695	1588.58	850.58
0	141696	1588.58	750.58
0	141830	1589.58	1050.58
0	141831	1589.58	950.58
0	141832	1589.58	850.58
0	141833	1589.58	750.58
0	141967	1590.58	1050.58
0	141968	1590.58	950.58
0	141969	1590.58	850.58
0	141970	1590.58	750.58
0	142104	1591.58	1050.58
0	142105	1591.58	950.58
0	142106	1591.58	850.58
0	142107	1591.58	750.58
0	142241	1592.58	1050.58
0	142242	1592.58	950.58
0	142243	1592.58	850.58
0	142244	1592.58	750.58
0	142378	1593.58	1050.58
0	142379	1593.58	950.58
0	142380	1593.58	850.58
0	142381	1593.58	750.58
0	142515	1594.58	1050.58
0	142516	1594.58	950.58
0	142517	1594.58	850.58
0	142518	1594.58	750.58
0	142652	1595.58	1050.58
0	142653	1595.58	950.58
0	142654	1595.58	850.58
0	142655	1595.58	750.58
0	142789	1596.58	1050.58
0	142790	1596.58	950.58
0	142791	1596.58	850.58
0	142792	1596.58	750.58
0	142926	1597.58	1050.58
0	142927	1597.58	950.58
0	142928	1597.58	850.58
0	142929	1597.58	750.58
0	143063	1598.58	1050.58
0	143064	1598.58	950.58
0	143065	1598.58	850.58
0	143066	1598.58	750.58
0	143200	1599.58	1050.58
0	143201	1599.58	950.58
0	143202	1599.58	850.58
0	143203	1599.58	750.58
0	143337	1600.58	1050.58
0	143338	1600.58	950.58
0	143339	1600.58	850.58
0	143340	1600.58	750.58
0	143474	1601.58	1050.58
0	143475	1601.58	950.58
0	143476	1601.58	850.58
0	143477	1601.58	750.58
0	143611	1602.58	1050.58
0	143612	1602.58	950.58
0	143613	1602.58	850.58
0	143614	1602.58	750.58
0	143748	1603.58	1050.58
0	143749	1603.58	950.58
0	143750	1603.58	850.58
0	143751	1603.58	750.58
0	143885	1604.58	1050.58
0	143886	1604.58	950.58
0	143887	1604.58	850.58
0	143888	1604.58	750.58
0	144022	1605.58	1050.58
0	144023	1605.58	950.58
0	144024	1605.58	850.58
0	144025	1605.58	750.58
0	144159	1606.58	1050.58
0	144160	1606.58	950.58
0	144161	1606.58	850.58
0	144162	1606.58	750.58
0	144296	1607.58	1050.58
0	144297	1607.58	950.58
0	144298	1607.58	850.58
0	144299	1607.58	750.58
0	144433	1608.58	1050.58
0	144434	1608.58	950.58
0	144435	1608.58	850.58
0	144436	1608.58	750.58
0	144570	1609.58	1050.58
0	144571	1609.58	950.58
0	144572	1609.58	850.58
0	144573	1609.58	750.58
0	144707	1610.58	1050.58
0	144708	1610.58	950.58
0	144709	1610.58	850.58
0	144710	1610.58	750.58
0	144844	1611.58	1050.58
0	144845	1611.58	950.58
0	144846	1611.58	850.58
0	144847	1611.58	750.58
0	144981	1612.58	1050.58
0	144982	1612.58	950.58
0	144983	1612.58	850.58
0	144984	1612.58	750.58
0	145118	1613.58	1050.58
0	145119	1613.58	950.58
0	145120	1613.58	850.58
0	145121	1613.58	750.58
0	145255	1614.58	1050.58
0	145256	1614.58	950.58
0	145257	1614.58	850.58
0	145258	1614.58	750.58
0	145392	1615.58	1050.58
0	145393	1615.58	950.58
0	145394	1615.58	850.58
0	145395	1615.58	750.58
0	145529	1616.58	1050.58
0	145530	1616.58	950.58
0	145531	1616.58	850.58
0	145532	1616.58	750.58
0	145666	1617.58	1050.58
0	145667	1617.58	950.58
0	145668	1617.58	850.58
0	145669	1617.58	750.58
0	145803	1618.58	1050.58
0	145804	1618.58	950.58
0	145805	1618.58	850.58
0	145806	1618.58	750.58
0	145940	1619.58	1050.58
0	145941	1619.58	950.58
0	145942	1619.58	850.58
0	145943	1619.58	750.58
0	146077	1620.58	1050.58
0	146078	1620.58	950.58
0	146079	1620.58	850.58
0	146080	1620.58	750.58
0	146214	1621.58	1050.58
0	146215	1621.58	950.58
0	146216	1621.58	850.58
0	146217	1621.58	750.58
0	146351	1622.58	1050.58
0	146352	1622.58	950.58
0	146353	1622.58	850.58
0	146354	1622.58	750.58
0	146488	1623.58	1050.58
0	146489	1623.58	950.58
0	146490	1623.58	850.58
0	146491	1623.58	750.58
0	146625	1624.58	1050.58
0	146626	1624.58	950.58
0	146627	1624.58	850.58
0	146628	1624.58	750.58
0	146762	1625.58	1050.58
0	146763	1625.58	950.58
0	146764	1625.58	850.58
0	146765	1625.58	750.58
0	146899	1626.58	1050.58
0	146900	1626.58	950.58
0	146901	1626.58	850.58
0	146902	1626.58	750.58
0	147036	1627.58	1050.58
0	147037	1627.58	950.58
0	147038	1627.58	850.58
0	147039	1627.58	750.58
0	147173	1628.58	1050.58
0	147174	1628.58	950.58
0	147175	1628.58	850.58
0	147176	1628.58	750.58
0	149433	1629.58	1050.58
0	149434	1629.58	950.58
0	149435	1629.58	850.58
0	149436	1629.58	750.58
0	149574	1630.58	1050.58
0	149575	1630.58	950.58
0	149576	1630.58	850.58
0	149577	1630.58	750.58
0	149715	1631.58	1050.58
0	149716	1631.58	950.58
0	149717	1631.58	850.58
0	149718	1631.58	750.58
0	149856	1632.58	1050.58
0	149857	1632.58	950.58
0	149858	1632.58	850.58
0	149859	1632.58	750.58
0	149997	1633.58	1050.58
0	149998	1633.58	950.58
0	149999	1633.58	850.58
0	150000	1633.58	750.58
0	150138	1634.58	1050.58
0	150139	1634.58	950.58
0	150140	1634.58	850.58
0	150141	1634.58	750.58
0	150279	1635.58	1050.58
0	150280	1635.58	950.58
0	150281	1635.58	850.58
0	150282	1635.58	750.58
0	150420	1636.58	1050.58
0	150421	1636.58	950.58
0	150422	1636.58	850.58
0	150423	1636.58	750.58
0	150561	1637.58	1050.58
0	150562	1637.58	950.58
0	150563	1637.58	850.58
0	150564	1637.58	750.58
0	150702	1638.58	1050.58
0	150703	1638.58	950.58
0	150704	1638.58	850.58
0	150705	1638.58	750.58
0	150843	1639.58	1050.58
0	150844	1639.58	950.58
0	150845	1639.58	850.58
0	150846	1639.58	750.58
0	150984	1640.58	1050.58
0	150985	1640.58	950.58
0	150986	1640.58	850.58
0	150987	1640.58	750.58
0	151125	1641.58	1050.58
0	151126	1641.58	950.58
0	151127	1641.58	850.58
0	151128	1641.58	750.58
0	151266	1642.58	1050.58
0	151267	1642.58	950.58
0	151268	1642.58	850.58
0	151269	1642.58	750.58
0	151407	1643.58	1050.58
0	151408	1643.58	950.58
0	151409	1643.58	850.58
0	151410	1643.58	750.58
0	151548	1644.58	1050.58
0	151549	1644.58	950.58
0	151550	1644.58	850.58
0	151551	1644.58	750.58
0	151689	1645.58	1050.58
0	151690	1645.58	950.58
0	151691	1645.58	850.58
0	151692	1645.58	750.58
0	151830	1646.58	1050.58
0	151831	1646.58	950.58
0	151832	1646.58	850.58
0	151833	1646.58	750.58
0	151971	1647.58	1050.58
0	151972	1647.58	950.58
0	151973	1647.58	850.58
0	151974	1647.58	750.58
0	152112	1648.58	1050.58
0	152113	1648.58	950.58
0	152114	1648.58	850.58
0	152115	1648.58	750.58
0	152253	1649.58	1050.58
0	152254	1649.58	950.58
0	152255	1649.58	850.58
0	152256	1649.58	750.58
0	152394	1650.58	1050.58
0	152395	1650.58	950.58
0	152396	1650.58	850.58
0	152397	1650.58	750.58
0	152535	1651.58	1050.58
0	152536	1651.58	950.58
0	152537	1651.58	850.58
0	152538	1651.58	750.58
0	152676	1652.58	1050.58
0	152677	1652.58	950.58
0	152678	1652.58	850.58
0	152679	1652.58	750.58
0	152817	1653.58	1050.58
0	152818	1653.58	950.58
0	152819	1653.58	850.58
0	152820	1653.58	750.58
0	152958	1654.58	1050.58
0	152959	1654.58	950.58
0	152960	1654.58	850.58
0	152961	1654.58	750.58
0	153099	1655.58	1050.58
0	153100	1655.58	950.58
0	153101	1655.58	850.58
0	153102	1655.58	750.58
0	153240	1656.58	1050.58
0	153241	1656.58	950.58
0	153242	1656.58	850.58
0	153243	1656.58	750.58
0	153381	1657.58	1050.58
0	153382	1657.58	950.58
0	153383	1657.58	850.58
0	153384	1657.58	750.58
0	153522	1658.58	1050.58
0	153523	1658.58	950.58
0	153524	1658.58	850.58
0	153525	1658.58	750.58
0	153663	1659.58	1050.58
0	153664	1659.58	950.58
0	153665	1659.58	850.58
0	153666	1659.58	750.58
0	153804	1660.58	1050.58
0	153805	1660.58	950.58
0	153806	1660.58	850.58
0	153807	1660.58	750.58
0	153945	1661.58	1050.58
0	153946	1661.58	950.58
0	153947	1661.58	850.58
0	153948	1661.58	750.58
0	154086	1662.58	1050.58
0	154087	1662.58	950.58
0	154088	1662.58	850.58
0	154089	1662.58	750.58
0	154227	1663.58	1050.58
0	154228	1663.58	950.58
0	154229	1663.58	850.58
0	154230	1663.58	750.58
0	154368	1664.58	1050.58
0	154369	1664.58	950.58
0	154370	1664.58	850.58
0	154371	1664.58	750.58
0	154509	1665.58	1050.58
0	154510	1665.58	950.58
0	154511	1665.58	850.58
0	154512	1665.58	750.58
0	154650	1666.58	1050.58
0	154651	1666.58	950.58
0	154652	1666.58	850.58
0	154653	1666.58	750.58
0	154791	1667.58	1050.58
0	154792	1667.58	950.58
[...]
0	961260	9688.97	8094.97
0	961261	9688.97	7994.97
0	961262	9688.97	7894.97
0	961263	9688.97	7794.97
0	961264	9688.97	7694.97
0	961265	9688.97	8393.97
0	961266	9688.97	8293.97
0	961267	9688.97	8193.97
0	961268	9688.97	8093.97
0	961269	9688.97	7993.97
0	961270	9688.97	7893.97
0	961271	9688.97	7793.97
0	961272	9688.97	7693.97
0	961273	9688.97	8392.97
0	961274	9688.97	8292.97
0	961275	9688.97	8192.97
0	961276	9688.97	8092.97
0	961277	9688.97	7992.97
0	961278	9688.97	7892.97
0	961279	9688.97	7792.97
0	961280	9688.97	7692.97
0	961281	9688.97	8391.97
0	961282	9688.97	8291.97
0	961283	9688.97	8191.97
0	961284	9688.97	8091.97
0	961285	9688.97	7991.97
0	961286	9688.97	7891.97
0	961287	9688.97	7791.97
0	961288	9688.97	7691.97
0	961289	9688.97	8390.97
0	961290	9688.97	8290.97
0	961291	9688.97	8190.97
0	961292	9688.97	8090.97
0	961293	9688.97	7990.97
0	961294	9688.97	7890.97
0	961295	9688.97	7790.97
0	961296	9688.97	7690.97
0	961297	9688.97	8389.97
0	961298	9688.97	8289.97
0	961299	9688.97	8189.97
0	961300	9688.97	8089.97
0	961301	9688.97	7989.97
0	961302	9688.97	7889.97
0	961303	9688.97	7789.97
0	961304	9688.97	7689.97
0	961305	9688.97	8388.97
0	961306	9688.97	8288.97
0	961307	9688.97	8188.97
0	961308	9688.97	8088.97
0	961309	9688.97	7988.97
0	961310	9688.97	7888.97
0	961311	9688.97	7788.97
0	961312	9688.97	8387.97
0	961313	9688.97	8287.97
0	961314	9688.97	8187.97
0	961315	9688.97	8087.97
0	961316	9688.97	7987.97
0	961317	9688.97	7887.97
0	961318	9688.97	7787.97
0	961319	9688.97	8386.97
0	961320	9688.97	8286.97
0	961321	9688.97	8186.97
0	961322	9688.97	8086.97
0	961323	9688.97	7986.97
0	961324	9688.97	7886.97
0	961325	9688.97	7786.97
0	961326	9688.97	8385.97
0	961327	9688.97	8285.97
0	961328	9688.97	8185.97
0	961329	9688.97	8085.97
0	961330	9688.97	7985.97
0	961331	9688.97	7885.97
0	961332	9688.97	7785.97
0	961333	9688.97	8384.97
0	961334	9688.97	8284.97
0	961335	9688.97	8184.97
0	961336	9688.97	8084.97
0	961337	9688.97	7984.97
0	961338	9688.97	7884.97
0	961339	9688.97	7784.97
0	961340	9688.97	8383.97
0	961341	9688.97	8283.97
0	961342	9688.97	8183.97
0	961343	9688.97	8083.97
0	961344	9688.97	7983.97
0	961345	9688.97	7883.97
0	961346	9688.97	7783.97
0	961347	9688.97	8382.97
0	961348	9688.97	8282.97
0	961349	9688.97	8182.97
0	961350	9688.97	8082.97
0	961351	9688.97	7982.97
0	961352	9688.97	7882.97
0	961353	9688.97	7782.97
0	961354	9688.97	8381.97
0	961355	9688.97	8281.97
0	961356	9688.97	8181.97
0	961357	9688.97	8081.97
0	961358	9688.97	7981.97
0	961359	9688.97	7881.97
0	961360	9688.97	7781.97
0	961361	9688.97	8380.97
0	961362	9688.97	8280.97
0	961363	9688.97	8180.97
0	961364	9688.97	8080.97
0	961365	9688.97	7980.97
0	961366	9688.97	7880.97
0	961367	9688.97	7780.97
0	961368	9688.97	8379.97
0	961369	9688.97	8279.97
0	961370	9688.97	8179.97
0	961371	9688.97	8079.97
0	961372	9688.97	7979.97
0	961373	9688.97	7879.97
0	961374	9688.97	7779.97
0	961375	9688.97	8378.97
0	961376	9688.97	8278.97
0	961377	9688.97	8178.97
0	961378	9688.97	8078.97
0	961379	9688.97	7978.97
0	961380	9688.97	7878.97
0	961381	9688.97	7778.97
0	961382	9688.97	8377.97
0	961383	9688.97	8277.97
0	961384	9688.97	8177.97
0	961385	9688.97	8077.97
0	961386	9688.97	7977.97
0	961387	9688.97	7877.97
0	961388	9688.97	7777.97
0	961389	9688.97	8376.97
0	961390	9688.97	8276.97
0	961391	9688.97	8176.97
0	961392	9688.97	8076.97
0	961393	9688.97	7976.97
0	961394	9688.97	7876.97
0	961395	9688.97	7776.97
0	961396	9688.97	8375.97
0	961397	9688.97	8275.97
0	961398	9688.97	8175.97
0	961399	9688.97	8075.97
0	961400	9688.97	7975.97
0	961401	9688.97	7875.97
0	961402	9688.97	7775.97
0	961403	9688.97	8374.97
0	961404	9688.97	8274.97
0	961405	9688.97	8174.97
0	961406	9688.97	8074.97
0	961407	9688.97	7974.97
0	961408	9688.97	7874.97
0	961409	9688.97	7774.97
0	961410	9688.97	8373.97
0	961411	9688.97	8273.97
0	961412	9688.97	8173.97
0	961413	9688.97	8073.97
0	961414	9688.97	7973.97
0	961415	9688.97	7873.97
0	961416	9688.97	7773.97
0	961417	9688.97	8372.97
0	961418	9688.97	8272.97
0	961419	9688.97	8172.97
0	961420	9688.97	8072.97
0	961421	9688.97	7972.97
0	961422	9688.97	7872.97
0	961423	9688.97	7772.97
0	961424	9688.97	8371.97
0	961425	9688.97	8271.97
0	961426	9688.97	8171.97
0	961427	9688.97	8071.97
0	961428	9688.97	7971.97
0	961429	9688.97	7871.97
0	961430	9688.97	7771.97
0	961431	9688.97	8370.97
0	961432	9688.97	8270.97
0	961433	9688.97	8170.97
0	961434	9688.97	8070.97
0	961435	9688.97	7970.97
0	961436	9688.97	7870.97
0	961437	9688.97	7770.97
0	961438	9688.97	8369.97
0	961439	9688.97	8269.97
0	961440	9688.97	8169.97
0	961441	9688.97	8069.97
0	961442	9688.97	7969.97
0	961443	9688.97	7869.97
0	961444	9688.97	7769.97
0	961445	9688.97	8368.97
0	961446	9688.97	8268.97
0	961447	9688.97	8168.97
0	961448	9688.97	8068.97
0	961449	9688.97	7968.97
0	961450	9688.97	7868.97
0	961451	9688.97	7768.97
0	961452	9688.97	8367.97
0	961453	9688.97	8267.97
0	961454	9688.97	8167.97
0	961455	9688.97	8067.97
0	961456	9688.97	7967.97
0	961457	9688.97	7867.97
0	961458	9688.97	7767.97
0	961459	9688.97	8366.97
0	961460	9688.97	8266.97
0	961461	9688.97	8166.97
0	961462	9688.97	8066.97
0	961463	9688.97	7966.97
0	961464	9688.97	7866.97
0	961465	9688.97	7766.97
0	961466	9688.97	8365.97
0	961467	9688.97	8265.97
0	961468	9688.97	8165.97
0	961469	9688.97	8065.97
0	961470	9688.97	7965.97
0	961471	9688.97	7865.97
0	961472	9688.97	7765.97
0	961473	9688.97	8364.97
0	961474	9688.97	8264.97
0	961475	9688.97	8164.97
0	961476	9688.97	8064.97
0	961477	9688.97	7964.97
0	961478	9688.97	7864.97
0	961479	9688.97	7764.97
0	961480	9688.97	8363.97
0	961481	9688.97	8263.97
0	961482	9688.97	8163.97
0	961483	9688.97	8063.97
0	961484	9688.97	7963.97
0	961485	9688.97	7863.97
0	961486	9688.97	7763.97
0	961487	9688.97	8362.97
0	961488	9688.97	8262.97
0	961489	9688.97	8162.97
0	961490	9688.97	8062.97
0	961491	9688.97	7962.97
0	961492	9688.97	7862.97
0	961493	9688.97	7762.97
0	961494	9688.97	8361.97
0	961495	9688.97	8261.97
0	961496	9688.97	8161.97
0	961497	9688.97	8061.97
0	961498	9688.97	7961.97
0	961499	9688.97	7861.97
0	961500	9688.97	7761.97
0	961501	9688.97	8360.97
0	961502	9688.97	8260.97
0	961503	9688.97	8160.97
0	961504	9688.97	8060.97
0	961505	9688.97	7960.97
0	961506	9688.97	7860.97
0	961507	9688.97	7760.97
0	961508	9688.97	8359.97
0	961509	9688.97	8259.97
0	961510	9688.97	8159.97
0	961511	9688.97	8059.97
0	961512	9688.97	7959.97
0	961513	9688.97	7859.97
0	961514	9688.97	7759.97
0	961515	9688.97	8358.97
0	961516	9688.97	8258.97
0	961517	9688.97	8158.97
0	961518	9688.97	8058.97
0	961519	9688.97	7958.97
0	961520	9688.97	7858.97
0	961521	9688.97	7758.97
0	961522	9688.97	8357.97
0	961523	9688.97	8257.97
0	961524	9688.97	8157.97
0	961525	9688.97	8057.97
0	961526	9688.97	7957.97
0	961527	9688.97	7857.97
0	961528	9688.97	7757.97
0	961529	9688.97	8356.97
0	961530	9688.97	8256.97
0	961531	9688.97	8156.97
0	961532	9688.97	8056.97
0	961533	9688.97	7956.97
0	961534	9688.97	7856.97
0	961535	9688.97	7756.97
0	961536	9688.97	8355.97
0	961537	9688.97	8255.97
0	961538	9688.97	8155.97
0	961539	9688.97	8055.97
0	961540	9688.97	7955.97
0	961541	9688.97	7855.97
0	961542	9688.97	7755.97
0	961543	9688.97	8354.97
0	961544	9688.97	8254.97
0	961545	9688.97	8154.97
0	961546	9688.97	8054.97
0	961547	9688.97	7954.97
0	961548	9688.97	7854.97
0	961549	9688.97	7754.97
0	961550	9688.97	8353.97
0	961551	9688.97	8253.97
0	961552	9688.97	8153.97
0	961553	9688.97	8053.97
0	961554	9688.97	7953.97
0	961555	9688.97	7853.97
0	961556	9688.97	7753.97
0	961557	9688.97	8352.97
0	961558	9688.97	8252.97
0	961559	9688.97	8152.97
0	961560	9688.97	8052.97
0	961561	9688.97	7952.97
0	961562	9688.97	7852.97
0	961563	9688.97	7752.97
0	961564	9688.97	8351.97
0	961565	9688.97	8251.97
0	961566	9688.97	8151.97
0	961567	9688.97	8051.97
0	961568	9688.97	7951.97
0	961569	9688.97	7851.97
0	961570	9688.97	7751.97
0	961571	9688.97	8350.97
0	961572	9688.97	8250.97
0	961573	9688.97	8150.97
0	961574	9688.97	8050.97
0	961575	9688.97	7950.97
0	961576	9688.97	7850.97
0	961577	9688.97	7750.97
0	961578	9688.97	8349.97
0	961579	9688.97	8249.97
0	961580	9688.97	8149.97
0	961581	9688.97	8049.97
0	961582	9688.97	7949.97
0	961583	9688.97	7849.97
0	961584	9688.97	7749.97
0	961585	9688.97	8348.97
0	961586	9688.97	8248.97
0	961587	9688.97	8148.97
0	961588	9688.97	8048.97
0	961589	9688.97	7948.97
0	961590	9688.97	7848.97
0	961591	9688.97	7748.97
0	961592	9688.97	8347.97
0	961593	9688.97	8247.97
0	961594	9688.97	8147.97
0	961595	9688.97	8047.97
0	961596	9688.97	7947.97
0	961597	9688.97	7847.97
0	961598	9688.97	7747.97
0	961599	9688.97	8346.97
0	961600	9688.97	8246.97
0	961601	9688.97	8146.97
0	961602	9688.97	8046.97
0	961603	9688.97	7946.97
0	961604	9688.97	7846.97
0	961605	9688.97	7746.97
0	961606	9688.97	8345.97
0	961607	9688.97	8245.97
0	961608	9688.97	8145.97
0	961609	9688.97	8045.97
0	961610	9688.97	7945.97
0	961611	9688.97	7845.97
0	961612	9688.97	7745.97
0	961613	9688.97	8344.97
0	961614	9688.97	8244.97
0	961615	9688.97	8144.97
0	961616	9688.97	8044.97
0	961617	9688.97	7944.97
0	961618	9688.97	7844.97
0	961619	9688.97	7744.97
0	961620	9688.97	8343.97
0	961621	9688.97	8243.97
0	961622	9688.97	8143.97
0	961623	9688.97	8043.97
0	961624	9688.97	7943.97
0	961625	9688.97	7843.97
0	961626	9688.97	7743.97
0	961627	9688.97	8342.97
0	961628	9688.97	8242.97
0	961629	9688.97	8142.97
0	961630	9688.97	8042.97
0	961631	9688.97	7942.97
0	961632	9688.97	7842.97
0	961633	9688.97	7742.97
0	961634	9688.97	8341.97
0	961635	9688.97	8241.97
0	961636	9688.97	8141.97
0	961637	9688.97	8041.97
0	961638	9688.97	7941.97
0	961639	9688.97	7841.97
0	961640	9688.97	7741.97
0	961641	9688.97	8340.97
0	961642	9688.97	8240.97
0	961643	9688.97	8140.97
0	961644	9688.97	8040.97
0	961645	9688.97	7940.97
0	961646	9688.97	7840.97
0	961647	9688.97	7740.97
0	961648	9688.97	8339.97
0	961649	9688.97	8239.97
0	961650	9688.97	8139.97
0	961651	9688.97	8039.97
0	961652	9688.97	7939.97
0	961653	9688.97	7839.97
0	961654	9688.97	7739.97
0	961655	9688.97	8338.97
0	961656	9688.97	8238.97
0	961657	9688.97	8138.97
0	961658	9688.97	8038.97
0	961659	9688.97	7938.97
0	961660	9688.97	7838.97
0	961661	9688.97	7738.97
0	961662	9688.97	8337.97
0	961663	9688.97	8237.97
0	961664	9688.97	8137.97
0	961665	9688.97	8037.97
0	961666	9688.97	7937.97
0	961667	9688.97	7837.97
0	961668	9688.97	7737.97
0	961669	9688.97	8336.97
0	961670	9688.97	8236.97
0	961671	9688.97	8136.97
0	961672	9688.97	8036.97
0	961673	9688.97	7936.97
0	961674	9688.97	7836.97
0	961675	9688.97	7736.97
0	961676	9688.97	8335.97
0	961677	9688.97	8235.97
0	961678	9688.97	8135.97
0	961679	9688.97	8035.97
0	961680	9688.97	7935.97
0	961681	9688.97	7835.97
0	961682	9688.97	7735.97
0	961683	9688.97	8334.97
0	961684	9688.97	8234.97
0	961685	9688.97	8134.97
0	961686	9688.97	8034.97
0	961687	9688.97	7934.97
0	961688	9688.97	7834.97
0	961689	9688.97	7734.97
0	961690	9688.97	8333.97
0	961691	9688.97	8233.97
0	961692	9688.97	8133.97
0	961693	9688.97	8033.97
0	961694	9688.97	7933.97
0	961695	9688.97	7833.97
0	961696	9688.97	7733.97
0	961697	9688.97	8332.97
0	961698	9688.97	8232.97
0	961699	9688.97	8132.97
0	961700	9688.97	8032.97
0	961701	9688.97	7932.97
0	961702	9688.97	7832.97
0	961703	9688.97	7732.97
0	961704	9688.97	8331.97
0	961705	9688.97	8231.97
0	961706	9688.97	8131.97
0	961707	9688.97	8031.97
0	961708	9688.97	7931.97
0	961709	9688.97	7831.97
0	961710	9688.97	7731.97
0	961711	9688.97	8330.97
0	961712	9688.97	8230.97
0	961713	9688.97	8130.97
0	961714	9688.97	8030.97
0	961715	9688.97	7930.97
0	961716	9688.97	7830.97
0	961717	9688.97	7730.97
0	961718	9688.97	8329.97
0	961719	9688.97	8229.97
0	961720	9688.97	8129.97
0	961721	9688.97	8029.97
0	961722	9688.97	7929.97
0	961723	9688.97	7829.97
0	961724	9688.97	7729.97
0	961725	9688.97	8328.97
0	961726	9688.97	8228.97
0	961727	9688.97	8128.97
0	961728	9688.97	8028.97
0	961729	9688.97	7928.97
0	961730	9688.97	7828.97
0	961731	9688.97	7728.97
0	961732	9688.97	8327.97
0	961733	9688.97	8227.97
0	961734	9688.97	8127.97
0	961735	9688.97	8027.97
0	961736	9688.97	7927.97
0	961737	9688.97	7827.97
0	961738	9688.97	7727.97
0	961739	9688.97	8326.97
0	961740	9688.97	8226.97
0	961741	9688.97	8126.97
0	961742	9688.97	8026.97
0	961743	9688.97	7926.97
0	961744	9688.97	7826.97
0	961745	9688.97	7726.97
0	961746	9688.97	8325.97
0	961747	9688.97	8225.97
0	961748	9688.97	8125.97
0	961749	9688.97	8025.97
0	961750	9688.97	7925.97
0	961751	9688.97	7825.97
0	961752	9688.97	7725.97
0	961753	9688.97	8324.97
0	961754	9688.97	8224.97
0	961755	9688.97	8124.97
0	961756	9688.97	8024.97
0	961757	9688.97	7924.97
0	961758	9688.97	7824.97
0	961759	9688.97	7724.97
0	961760	9688.97	8323.97
0	961761	9688.97	8223.97
0	961762	9688.97	8123.97
0	961763	9688.97	8023.97
0	961764	9688.97	7923.97
0	961765	9688.97	7823.97
0	961766	9688.97	7723.97
0	961767	9688.97	8322.97
0	961768	9688.97	8222.97
0	961769	9688.97	8122.97
0	961770	9688.97	8022.97
0	961771	9688.97	7922.97
0	961772	9688.97	7822.97
0	961773	9688.97	7722.97
0	961774	9688.97	8321.97
0	961775	9688.97	8221.97
0	961776	9688.97	8121.97
0	961777	9688.97	8021.97
0	961778	9688.97	7921.97
0	961779	9688.97	7821.97
0	961780	9688.97	7721.97
0	961781	9688.97	8320.97
0	961782	9688.97	8220.97
0	961783	9688.97	8120.97
0	961784	9688.97	8020.97
0	961785	9688.97	7920.97
0	961786	9688.97	7820.97
0	961787	9688.97	7720.97
0	961788	9688.97	8319.97
0	961789	9688.97	8219.97
0	961790	9688.97	8119.97
0	961791	9688.97	8019.97
0	961792	9688.97	7919.97
0	961793	9688.97	7819.97
0	961794	9688.97	7719.97
0	961795	9688.97	8318.97
0	961796	9688.97	8218.97
0	961797	9688.97	8118.97
0	961798	9688.97	8018.97
0	961799	9688.97	7918.97
0	961800	9688.97	7818.97
0	961801	9688.97	7718.97
0	961802	9688.97	8317.97
0	961803	9688.97	8217.97
0	961804	9688.97	8117.97
0	961805	9688.97	8017.97
0	961806	9688.97	7917.97
0	961807	9688.97	7817.97
0	961808	9688.97	7717.97
0	961809	9688.97	8316.97
0	961810	9688.97	8216.97
0	961811	9688.97	8116.97
0	961812	9688.97	8016.97
0	961813	9688.97	7916.97
0	961814	9688.97	7816.97
0	961815	9688.97	7716.97
0	961816	9688.97	8315.97
0	961817	9688.97	8215.97
0	961818	9688.97	8115.97
0	961819	9688.97	8015.97
0	961820	9688.97	7915.97
0	961821	9688.97	7815.97
0	961822	9688.97	7715.97
0	961823	9688.97	8314.97
0	961824	9688.97	8214.97
0	961825	9688.97	8114.97
0	961826	9688.97	8014.97
0	961827	9688.97	7914.97
0	961828	9688.97	7814.97
0	961829	9688.97	7714.97
0	961830	9688.97	8313.97
0	961831	9688.97	8213.97
0	961832	9688.97	8113.97
0	961833	9688.97	8013.97
0	961834	9688.97	7913.97
0	961835	9688.97	7813.97
0	961836	9688.97	7713.97
0	961837	9688.97	8312.97
0	961838	9688.97	8212.97
0	961839	9688.97	8112.97
0	961840	9688.97	8012.97
0	961841	9688.97	7912.97
0	961842	9688.97	7812.97
0	961843	9688.97	7712.97
0	961844	9688.97	8311.97
0	961845	9688.97	8211.97
0	961846	9688.97	8111.97
0	961847	9688.97	8011.97
0	961848	9688.97	7911.97
0	961849	9688.97	7811.97
0	961850	9688.97	7711.97
0	961851	9688.97	8310.97
0	961852	9688.97	8210.97
0	961853	9688.97	8110.97
0	961854	9688.97	8010.97
0	961855	9688.97	7910.97
0	961856	9688.97	7810.97
0	961857	9688.97	7710.97
0	961858	9688.97	8309.97
0	961859	9688.97	8209.97
0	961860	9688.97	8109.97
0	961861	9688.97	8009.97
0	961862	9688.97	7909.97
0	961863	9688.97	7809.97
0	961864	9688.97	7709.97
0	961865	9688.97	8308.97
0	961866	9688.97	8208.97
0	961867	9688.97	8108.97
0	961868	9688.97	8008.97
0	961869	9688.97	7908.97
0	961870	9688.97	7808.97
0	961871	9688.97	7708.97
0	961872	9688.97	8307.97
0	961873	9688.97	8207.97
0	961874	9688.97	8107.97
0	961875	9688.97	8007.97
0	961876	9688.97	7907.97
0	961877	9688.97	7807.97
0	961878	9688.97	7707.97
0	961879	9688.97	8306.97
0	961880	9688.97	8206.97
0	961881	9688.97	8106.97
0	961882	9688.97	8006.97
0	961883	9688.97	7906.97
0	961884	9688.97	7806.97
0	961885	9688.97	7706.97
0	972745	9760.08	8855.08
0	972746	9760.08	8755.08
0	972747	9760.08	8854.08
0	972748	9760.08	8754.08
0	972749	9760.08	8853.08
0	972750	9760.08	8753.08
0	972751	9760.08	8852.08
0	972752	9760.08	8752.08
0	972753	9760.08	8851.08
0	972754	9760.08	8751.08
0	972755	9760.08	8850.08
0	972756	9760.08	8750.08
0	972757	9760.08	8849.08
0	972758	9760.08	8749.08
0	972759	9760.08	8848.08
0	972760	9760.08	8748.08
0	972761	9760.08	8847.08
0	972762	9760.08	8747.08
0	972763	9760.08	8846.08
0	972764	9760.08	8746.08
0	972765	9760.08	8845.08
0	972766	9760.08	8745.08
0	972767	9760.08	8844.08
0	972768	9760.08	8744.08
0	972769	9760.08	8843.08
0	972770	9760.08	8743.08
0	972771	9760.08	8842.08
0	972772	9760.08	8742.08
0	972773	9760.08	8841.08
0	972774	9760.08	8741.08
0	972775	9760.08	8840.08
0	972776	9760.08	8740.08
0	972777	9760.08	8839.08
0	972778	9760.08	8739.08
0	972779	9760.08	8838.08
0	972780	9760.08	8738.08
0	972781	9760.08	8837.08
0	972782	9760.08	8737.08
0	972783	9760.08	8836.08
0	972784	9760.08	8736.08
0	972785	9760.08	8835.08
0	972786	9760.08	8735.08
0	972787	9760.08	8834.08
0	972788	9760.08	8734.08
0	972789	9760.08	8833.08
0	972790	9760.08	8733.08
0	972791	9760.08	8832.08
0	972792	9760.08	8732.08
0	972793	9760.08	8831.08
0	972794	9760.08	8731.08
0	972795	9760.08	8830.08
0	972796	9760.08	8730.08
0	972797	9760.08	8829.08
0	972798	9760.08	8729.08
0	972799	9760.08	8828.08
0	972800	9760.08	8728.08
0	972801	9760.08	8827.08
0	972802	9760.08	8727.08
0	972803	9760.08	8826.08
0	972804	9760.08	8726.08
0	972805	9760.08	8825.08
0	972806	9760.08	8725.08
0	972807	9760.08	8824.08
0	972808	9760.08	8724.08
0	972809	9760.08	8823.08
0	972810	9760.08	8723.08
0	972811	9760.08	8822.08
0	972812	9760.08	8722.08
0	972813	9760.08	8821.08
0	972814	9760.08	8721.08
0	972815	9760.08	8820.08
0	972816	9760.08	8720.08
0	972817	9760.08	8819.08
0	972818	9760.08	8719.08
0	972819	9760.08	8818.08
0	972820	9760.08	8718.08
0	972821	9760.08	8817.08
0	972822	9760.08	8717.08
0	972823	9760.08	8816.08
0	972824	9760.08	8716.08
0	972825	9760.08	8815.08
0	972826	9760.08	8715.08
0	972827	9760.08	8814.08
0	972828	9760.08	8714.08
0	972829	9760.08	8813.08
0	972830	9760.08	8713.08
0	972831	9760.08	8812.08
0	972832	9760.08	8712.08
0	972833	9760.08	8811.08
0	972834	9760.08	8711.08
0	972835	9760.08	8810.08
0	972836	9760.08	8710.08
0	972837	9760.08	8809.08
0	972838	9760.08	8709.08
0	972839	9760.08	8808.08
0	972840	9760.08	8708.08
0	972841	9760.08	8807.08
0	972842	9760.08	8707.08
0	972843	9760.08	8806.08
0	972844	9760.08	8706.08
0	972845	9760.08	8805.08
0	972846	9760.08	8705.08
0	972847	9760.08	8804.08
0	972848	9760.08	8704.08
0	972849	9760.08	8803.08
0	972850	9760.08	8703.08
0	972851	9760.08	8802.08
0	972852	9760.08	8702.08
0	972853	9760.08	8801.08
0	972854	9760.08	8701.08
0	972855	9760.08	8800.08
0	972856	9760.08	8700.08
0	972857	9760.08	8799.08
0	972858	9760.08	8699.08
0	972859	9760.08	8798.08
0	972860	9760.08	8698.08
0	972861	9760.08	8797.08
0	972862	9760.08	8697.08
0	972863	9760.08	8796.08
0	972864	9760.08	8696.08
0	972865	9760.08	8795.08
0	972866	9760.08	8695.08
0	972867	9760.08	8794.08
0	972868	9760.08	8694.08
0	972869	9760.08	8793.08
0	972870	9760.08	8693.08
0	972871	9760.08	8792.08
0	972872	9760.08	8692.08
0	972873	9760.08	8791.08
0	972874	9760.08	8691.08
0	972875	9760.08	8790.08
0	972876	9760.08	8690.08
0	972877	9760.08	8789.08
0	972878	9760.08	8689.08
0	972879	9760.08	8788.08
0	972880	9760.08	8688.08
0	972881	9760.08	8787.08
0	972882	9760.08	8687.08
0	972883	9760.08	8786.08
0	972884	9760.08	8686.08
0	972885	9760.08	8785.08
0	972886	9760.08	8685.08
0	972887	9760.08	8784.08
0	972888	9760.08	8684.08
0	972889	9760.08	8783.08
0	972890	9760.08	8683.08
0	972891	9760.08	8782.08
0	972892	9760.08	8781.08
0	972893	9760.08	8780.08
0	972894	9760.08	8779.08
0	972895	9760.08	8778.08
0	972896	9760.08	8777.08
0	972897	9760.08	8776.08
0	972898	9760.08	8775.08
0	972899	9760.08	8774.08
0	972900	9760.08	8773.08
0	972901	9760.08	8772.08
0	972902	9760.08	8771.08
0	972903	9760.08	8770.08
0	972904	9760.08	8769.08
0	972905	9760.08	8768.08
0	972906	9760.08	8767.08
0	972907	9760.08	8766.08
0	972908	9760.08	8765.08
0	972909	9760.08	8764.08
0	972910	9760.08	8763.08
0	972911	9760.08	8762.08
0	972912	9760.08	8761.08
0	972913	9760.08	8760.08
0	972914	9760.08	8759.08
0	972915	9760.08	8758.08
0	972916	9760.08	8757.08
0	972917	9760.08	8756.08

