version 2
run General-0-20250115-05:59:18-105211
attr configname General
attr datetime 20250115-05:59:18
attr experiment General
attr inifile shaw.ini
attr iterationvars ""
attr iterationvarsf ""
attr measurement ""
attr network src.dtnsim
attr processid 105211
attr repetition 0
attr replication #0
attr resultdir results
attr runnumber 0
attr seedset 0
param dtnsim.central.contactsFile "\"contactPlan/Contacts.txt\""
param dtnsim.central.contactsFile_A "\"contactPlan/Contacts_A.txt\""
param dtnsim.central.contactsFile_B "\"contactPlan/Contacts_B.txt\""
param dtnsim.central.contactIdsToDelete_from_celestialA "\"15 18 19 25 35 36 43 47 61 67 68 80 81 88 90 93 96 98 108 109 114 120 121 123 149 153 154 165 168 173 187 191 192 193 195 208 209 236 239 250 267 273 274 275 277 296 298 303 310 319 321 322 327 329 332 334 335 339 345 347 365 372 373 388 393 402 403 414 419 421 425 436 440 449 451 456 463 466 472 476 477 484 492 498 503 509 523 526 528 530 543 544 559 564 570 581 582 590\""
param dtnsim.central.contactIdsToDelete_from_celestialB "\"1 11 14 16 29 54 56 57 65 66 71 75 76 83 85 89 106 110 131 133 134 140 143 150 161 162 163 171 172 176 185 190 198 199 201 203 217 220 221 224 226 229 230 234 242 243 247 254 260 262 271 272 280 285 292 307 312 316 328 336 343 350 355 356 357 359 367 382 387 395 401 406 408 427 429 433 441 443 444 445 446 447 448 455 473 475 479 481 497 511 516 520 521 533 546 550 551 557 563 584 596 599\""
param dtnsim.central.celestialA_nodes "\"1 2 3\""
param dtnsim.central.celestialB_nodes "\"4 5 6\""
param dtnsim.central.locallyfaultsAware true
param dtnsim.central.mode_two_celestial true
param dtnsim.nodesNumber 6
param dtnsim.node[1].icon "\"receiverdish\""
param dtnsim.node[2..5].icon "\"satellite\""
param dtnsim.node[6].icon "\"receiverdish\""
param dtnsim.node[*].dtn.routing "\"cgrModel350\""
param dtnsim.node[*].dtn.routingType "\"routeListType:allPaths-firstEnding,volumeAware:allContacts,extensionBlock:on,contactPlan:global\""
param dtnsim.node[1].app.enable true
param dtnsim.node[*].app.custodyTransfer true
param dtnsim.node[1].app.bundlesNumber "\"1800\""
param dtnsim.node[1].app.start "\"0\""
param dtnsim.node[1].app.destinationEid "\"6\""
param dtnsim.node[1].app.size "\"1500\""
param dtnsim.node[1].app.interval 1

vector 0 dtnsim.node[6].app appBundleReceivedDelayvec:vector ETV
attr interpolationmode none
attr source appBundleReceivedDelay
attr title "appBundleReceivedDelayvec, vector"
0	2023	36.5	36.5
0	2024	36.5	35.5
0	2025	36.5	34.5
0	2026	36.5	33.5
0	2027	36.5	32.5
0	2028	36.5	31.5
0	2029	36.5	30.5
0	2030	36.5	29.5
0	2031	36.5	28.5
0	2032	36.5	27.5
0	2033	36.5	26.5
0	2034	36.5	25.5
0	2035	36.5	24.5
0	2036	36.5	23.5
0	2037	36.5	22.5
0	2038	36.5	21.5
0	2039	36.5	20.5
0	2040	36.5	19.5
0	2041	36.5	18.5
0	2042	36.5	17.5
0	2043	36.5	16.5
0	2044	36.5	15.5
0	2045	36.5	14.5
0	2046	36.5	13.5
0	2047	36.5	12.5
0	2048	36.5	11.5
0	2049	36.5	10.5
0	2050	36.5	9.5
0	2051	36.5	8.5
0	2052	36.5	7.5
0	2053	36.5	6.5
0	2054	36.5	5.5
0	2055	36.5	4.5
0	2363	36.9	3.9
0	2511	37.9	3.9
0	2771	38.9	3.9
0	2930	39.9	3.9
0	3027	40.9	3.9
0	3122	41.9	3.9
0	3217	42.9	3.9
0	3312	43.9	3.9
0	3407	44.9	3.9
0	3502	45.9	3.9
0	3597	46.9	3.9
0	3692	47.9	3.9
0	3787	48.9	3.9
0	3885	49.9	3.9
0	3981	50.9	3.9
0	4080	51.9	3.9
0	4177	52.9	3.9
0	4274	53.9	3.9
0	4371	54.9	3.9
0	4471	55.9	3.9
0	4570	56.9	3.9
0	4673	57.9	3.9
0	4777	58.9	3.9
0	4879	59.9	3.9
0	4981	60.9	3.9
0	5083	61.9	3.9
0	5185	62.9	3.9
0	5274	63.6	1.6
0	5338	63.9	3.9
0	5427	64.6	1.6
0	5472	64.9	3.9
0	5562	65.6	1.6
0	5652	66.6	1.6
0	5740	67.6	1.6
0	5828	68.6	1.6
0	5919	69.6	1.6
0	6010	70.6	1.6
0	6072	71.2	1.2
0	6141	72.2	1.2
0	6200	73.2	1.2
0	6266	74.2	1.2
0	6332	75.2	1.2
0	6401	76.2	1.2
0	6468	77.2	1.2
0	6536	78.2	1.2
0	6602	79.2	1.2
0	6667	80.2	1.2
0	6732	81.2	1.2
0	6799	82.2	1.2
0	6863	83.2	1.2
0	6923	84.2	1.2
0	7026	86.2	2.2
0	7027	86.2	1.2
0	7083	87.2	1.2
0	7143	88.2	1.2
0	7204	89.2	1.2
0	7261	90.2	1.2
0	7316	91.2	1.2
0	7371	92.2	1.2
0	7426	93.2	1.2
0	7481	94.2	1.2
0	7536	95.2	1.2
0	7591	96.2	1.2
0	7649	97.2	1.2
0	7705	98.2	1.2
0	7759	99.2	1.2
0	7807	100.4	1.4
0	7853	101.4	1.4
0	7899	102.4	1.4
0	7947	103.4	1.4
0	7996	104.4	1.4
0	8042	105.4	1.4
0	8088	106.4	1.4
0	8409	107.4	1.4
0	8482	108.4	1.4
0	8534	109.4	1.4
0	9248	132.6	23.6
0	9249	132.6	22.6
0	9250	132.6	21.6
0	9251	132.6	20.6
0	9252	132.6	19.6
0	9253	132.6	18.6
0	9254	132.6	17.6
0	9255	132.6	16.6
0	9256	132.6	15.6
0	9257	132.6	14.6
0	9258	132.6	13.6
0	9259	132.6	12.6
0	9260	132.6	11.6
0	9261	132.6	10.6
0	9262	132.6	9.6
0	9263	132.6	8.6
0	9264	132.6	7.6
0	9265	132.6	6.6
0	9266	132.6	5.6
0	9267	132.6	4.6
0	9268	132.6	3.6
0	9269	132.6	2.6
0	9270	132.6	1.6
0	9425	133.6	1.6
0	9550	134.6	1.6
0	9633	135.6	1.6
0	9715	136.6	1.6
0	9762	137.6	1.6
0	9815	138.6	1.6
0	9862	139.6	1.6
0	9915	140.6	1.6
0	9964	141.6	1.6
0	10013	142.6	1.6
0	10062	143.6	1.6
0	10107	144.6	1.6
0	10234	146.5	2.5
0	10235	146.5	1.5
0	10325	147.5	1.5
0	10417	148.5	1.5
0	10573	150.5	2.5
0	10592	150.6	1.6
0	10654	151.6	1.6
0	10729	152.6	1.6
0	10795	153.6	1.6
0	10861	154.6	1.6
0	10927	155.6	1.6
0	10993	156.6	1.6
0	11059	157.6	1.6
0	11122	158.6	1.6
0	18300	250.1	91.1
0	18301	250.1	90.1
0	18302	250.1	89.1
0	18303	250.1	88.1
0	18304	250.1	87.1
0	18305	250.1	86.1
0	18306	250.1	85.1
0	18307	250.1	84.1
0	18308	250.1	83.1
0	18309	250.1	82.1
0	18310	250.1	81.1
0	18311	250.1	80.1
0	18312	250.1	79.1
0	18313	250.1	78.1
0	18314	250.1	77.1
0	18315	250.1	76.1
0	18316	250.1	75.1
0	18317	250.1	74.1
0	18318	250.1	73.1
0	18319	250.1	72.1
0	18320	250.1	71.1
0	18321	250.1	70.1
0	18322	250.1	69.1
0	18323	250.1	68.1
0	18324	250.1	67.1
0	18325	250.1	66.1
0	18326	250.1	65.1
0	18327	250.1	64.1
0	18328	250.1	63.1
0	18329	250.1	62.1
0	18330	250.1	61.1
0	18331	250.1	60.1
0	18332	250.1	59.1
0	18333	250.1	58.1
0	18334	250.1	57.1
0	18335	250.1	56.1
0	18336	250.1	55.1
0	18337	250.1	54.1
0	18338	250.1	53.1
0	18339	250.1	52.1
0	18340	250.1	51.1
0	18341	250.1	50.1
0	18342	250.1	49.1
0	18343	250.1	48.1
0	18344	250.1	47.1
0	18345	250.1	46.1
0	18346	250.1	45.1
0	18347	250.1	44.1
0	18348	250.1	43.1
0	18349	250.1	92.1
0	18350	250.1	42.1
0	18351	250.1	41.1
0	18352	250.1	40.1
0	18353	250.1	39.1
0	18354	250.1	38.1
0	18355	250.1	37.1
0	18356	250.1	36.1
0	18357	250.1	35.1
0	18358	250.1	34.1
0	18359	250.1	33.1
0	18360	250.1	32.1
0	18361	250.1	31.1
0	18362	250.1	30.1
0	18363	250.1	29.1
0	18364	250.1	28.1
0	18365	250.1	27.1
0	18366	250.1	26.1
0	18367	250.1	25.1
0	18368	250.1	24.1
0	18369	250.1	23.1
0	18370	250.1	22.1
0	18371	250.1	21.1
0	18372	250.1	20.1
0	18373	250.1	19.1
0	18374	250.1	18.1
0	18375	250.1	17.1
0	18376	250.1	16.1
0	18377	250.1	15.1
0	18378	250.1	14.1
0	18379	250.1	13.1
0	18380	250.1	12.1
0	18381	250.1	11.1
0	18382	250.1	10.1
0	18383	250.1	9.1
0	18384	250.1	8.1
0	18385	250.1	7.1
0	18386	250.1	6.1
0	18387	250.1	5.1
0	18388	250.1	4.1
0	18389	250.1	3.1
0	18390	250.1	2.1
0	18889	250.2	1.2
0	19157	251.2	1.2
0	19555	252.2	1.2
0	19711	253.2	1.2
0	19996	254.2	1.2
0	20415	255.2	1.2
0	20717	256.2	1.2
0	21150	257.2	1.2
0	21339	258.2	1.2
0	21655	259.2	1.2
0	22110	260.2	1.2
0	22446	261.2	1.2
0	22915	262.2	1.2
0	23140	263.2	1.2
0	23478	264.2	1.2
0	23783	265.2	1.2
0	24132	266.2	1.2
0	24277	267.2	1.2
0	24339	268.2	1.2
0	24397	269.2	1.2
0	24455	270.2	1.2
0	24513	271.2	1.2
0	24571	272.2	1.2
0	24629	273.2	1.2
0	24687	274.2	1.2
0	24745	275.2	1.2
0	24803	276.2	1.2
0	24864	277.2	1.2
0	24923	278.2	1.2
0	24982	279.2	1.2
0	25041	280.2	1.2
0	25105	281.2	1.2
0	25163	282.2	1.2
0	25290	284.7	2.7
0	25291	284.7	1.7
0	25365	285.7	1.7
0	25433	286.7	1.7
0	25499	287.7	1.7
0	25565	288.7	1.7
0	25631	289.7	1.7
0	25733	290.7	1.7
0	25837	291.7	1.7
0	25907	292.7	1.7
0	25977	293.7	1.7
0	26049	294.7	1.7
0	26120	295.7	1.7
0	26191	296.7	1.7
0	26260	297.7	1.7
0	26330	298.7	1.7
0	26395	299.7	1.7
0	26458	300.7	1.7
0	26521	301.7	1.7
0	26609	302.7	1.7
0	26686	303.7	1.7
0	26752	304.7	1.7
0	26826	305.7	1.7
0	26897	306.7	1.7
0	26956	307.6	1.6
0	27013	308.6	1.6
0	27069	309.6	1.6
0	27128	310.6	1.6
0	27184	311.6	1.6
0	27223	312.6	1.6
0	27364	315.6	3.6
0	27365	315.6	2.6
0	27366	315.6	1.6
0	27442	316.6	1.6
0	27498	317.6	1.6
0	27559	318.6	1.6
0	27620	319.6	1.6
0	27677	320.6	1.6
0	27736	321.6	1.6
0	27795	322.6	1.6
0	27853	323.6	1.6
0	27913	324.6	1.6
0	27972	325.6	1.6
0	28024	326.6	1.6
0	28078	327.6	1.6
0	28130	328.6	1.6
0	28181	329.6	1.6
0	28232	330.6	1.6
0	28282	331.6	1.6
0	28366	333.6	2.6
0	28367	333.6	1.6
0	28428	334.6	1.6
0	28479	335.6	1.6
0	28533	336.6	1.6
0	28585	337.6	1.6
0	28637	338.6	1.6
0	28689	339.6	1.6
0	28741	340.6	1.6
0	28795	341.6	1.6
0	28847	342.6	1.6
0	28899	343.6	1.6
0	28951	344.6	1.6
0	29003	345.6	1.6
0	29055	346.6	1.6
0	29107	347.6	1.6
0	29159	348.6	1.6
0	29334	349.6	1.6
0	29486	350.6	1.6
0	29547	351.6	1.6
0	29613	352.6	1.6
0	29674	353.4	1.4
0	29748	354.4	1.4
0	29823	355.4	1.4
0	29896	356.4	1.4
0	29969	357.4	1.4
0	30042	358.4	1.4
0	30115	359.4	1.4
0	30188	360.4	1.4
0	30264	361.4	1.4
0	30339	362.4	1.4
0	30413	363.4	1.4
0	30487	364.4	1.4
0	30561	365.4	1.4
0	30637	366.4	1.4
0	30711	367.4	1.4
0	30785	368.4	1.4
0	30859	369.4	1.4
0	30932	370.4	1.4
0	31009	371.4	1.4
0	31085	372.4	1.4
0	31153	373.4	1.4
0	31227	374.4	1.4
0	31308	375.4	1.4
0	31380	376.4	1.4
0	31450	377.4	1.4
0	31520	378.4	1.4
0	31590	379.4	1.4
0	31659	380.4	1.4
0	31728	381.4	1.4
0	31796	382.4	1.4
0	31865	383.4	1.4
0	31933	384.4	1.4
0	32005	385.4	1.4
0	32075	386.4	1.4
0	32145	387.4	1.4
0	32263	388.4	1.4
0	32364	389.4	1.4
0	32524	390.4	1.4
0	32613	391.4	1.4
0	32702	392.4	1.4
0	32791	393.4	1.4
0	32880	394.4	1.4
0	32969	395.4	1.4
0	33060	396.4	1.4
0	33152	397.4	1.4
0	33243	398.4	1.4
0	33334	399.4	1.4
0	33425	400.4	1.4
0	33516	401.4	1.4
0	33607	402.4	1.4
0	33700	403.4	1.4
0	33792	404.4	1.4
0	33885	405.4	1.4
0	33993	406.4	1.4
0	34107	407.4	1.4
0	34141	407.5	101.5
0	34259	408.4	1.4
0	34293	408.5	101.5
0	34414	409.4	1.4
0	34443	409.5	101.5
0	34678	410.4	1.4
0	34722	410.5	101.5
0	35040	411.4	1.4
0	35094	411.5	101.5
0	37249	416.4	5.4
0	37250	416.4	4.4
0	37251	416.4	3.4
0	37252	416.4	2.4
0	37362	416.5	1.5
0	38058	417.5	1.5
0	38792	418.5	1.5
0	39576	419.5	1.5
0	40410	420.5	1.5
0	41030	421.5	1.5
0	41189	422.5	1.5
0	41245	423.5	1.5
0	41294	424.5	1.5
0	41344	425.5	1.5
0	41392	426.5	1.5
0	41440	427.5	1.5
0	41488	428.5	1.5
0	41536	429.5	1.5
0	41583	430.5	1.5
0	41629	431.5	1.5
0	41676	432.5	1.5
0	41727	433.5	1.5
0	41774	434.5	1.5
0	41821	435.5	1.5
0	41868	436.5	1.5
0	41915	437.5	1.5
0	41962	438.5	1.5
0	42140	439.5	1.5
0	42522	440.5	1.5
0	42634	441.5	1.5
0	42715	442.5	1.5
0	42796	443.5	1.5
0	42877	444.5	1.5
0	42958	445.5	1.5
0	43039	446.5	1.5
0	43112	447.5	1.5
0	43180	448.5	1.5
0	43248	449.5	1.5
0	43319	450.5	1.5
0	43389	451.5	1.5
0	43459	452.5	1.5
0	43529	453.5	1.5
0	43599	454.5	1.5
0	43668	455.5	1.5
0	43737	456.5	1.5
0	43804	457.5	1.5
0	44459	474.1	17.1
0	44460	474.1	16.1
0	44461	474.1	15.1
0	44462	474.1	14.1
0	44463	474.1	13.1
0	44464	474.1	12.1
0	44465	474.1	11.1
0	44466	474.1	10.1
0	44467	474.1	9.1
0	44468	474.1	8.1
0	44469	474.1	7.1
0	44470	474.1	6.1
0	44471	474.1	5.1
0	44472	474.1	4.1
0	44473	474.1	3.1
0	44474	474.1	2.1
0	44713	474.5	1.5
0	44822	475.5	1.5
0	44886	476.5	1.5
0	44948	477.5	1.5
0	45010	478.5	1.5
0	45072	479.5	1.5
0	45134	480.5	1.5
0	45178	481.5	1.5
0	46946	564.5	101.5
0	46972	565.5	101.5
0	46998	566.5	101.5
0	47024	567.5	101.5
0	47053	568.5	101.5
0	47073	569.5	101.5
0	47128	571.5	102.5
0	47129	571.5	101.5
0	47319	572.5	101.5
0	47352	573.5	101.5
0	47461	574.1	117.1
0	47462	574.1	116.1
0	47463	574.1	115.1
0	47464	574.1	114.1
0	47465	574.1	113.1
0	47466	574.1	112.1
0	47467	574.1	111.1
0	47468	574.1	110.1
0	47469	574.1	109.1
0	47470	574.1	108.1
0	47471	574.1	107.1
0	47472	574.1	106.1
0	47473	574.1	105.1
0	47474	574.1	104.1
0	47475	574.1	103.1
0	47476	574.1	102.1
0	47504	574.5	101.5
0	47505	574.5	101.5
0	47546	575.5	101.5
0	47547	575.5	101.5
0	47589	576.5	101.5
0	47590	576.5	101.5
0	47630	577.5	101.5
0	47631	577.5	101.5
0	47671	578.5	101.5
0	47672	578.5	101.5
0	47712	579.5	101.5
0	47713	579.5	101.5
0	47755	580.5	101.5
0	47756	580.5	101.5
0	47788	581.5	101.5
0	47789	581.5	101.5
0	50985	584.5	103.5
0	50986	584.5	102.5
0	50987	584.5	101.5
0	50988	584.5	100.5
0	50989	584.5	99.5
0	50990	584.5	98.5
0	50991	584.5	97.5
0	50992	584.5	96.5
0	50993	584.5	95.5
0	50994	584.5	94.5
0	50995	584.5	93.5
0	50996	584.5	92.5
0	50997	584.5	91.5
0	50998	584.5	90.5
0	50999	584.5	89.5
0	51000	584.5	88.5
0	51001	584.5	87.5
0	51002	584.5	86.5
0	51003	584.5	85.5
0	51004	584.5	84.5
0	51005	584.5	83.5
0	51006	584.5	82.5
0	51007	584.5	81.5
0	51008	584.5	80.5
0	51009	584.5	79.5
0	51010	584.5	78.5
0	51011	584.5	77.5
0	51012	584.5	76.5
0	51013	584.5	75.5
0	51014	584.5	74.5
0	51015	584.5	73.5
0	51016	584.5	72.5
0	51017	584.5	71.5
0	51018	584.5	70.5
0	51019	584.5	69.5
0	51020	584.5	68.5
0	51021	584.5	67.5
0	51022	584.5	66.5
0	51023	584.5	65.5
0	51024	584.5	64.5
0	51025	584.5	63.5
0	51026	584.5	62.5
0	51027	584.5	61.5
0	51028	584.5	60.5
0	51029	584.5	59.5
0	51030	584.5	58.5
0	51031	584.5	57.5
0	51032	584.5	56.5
0	51033	584.5	55.5
0	51034	584.5	54.5
0	51035	584.5	53.5
0	51036	584.5	52.5
0	51037	584.5	51.5
0	51038	584.5	50.5
0	51039	584.5	49.5
0	51040	584.5	48.5
0	51041	584.5	47.5
0	51042	584.5	46.5
0	51043	584.5	45.5
0	51044	584.5	44.5
0	51045	584.5	43.5
0	51046	584.5	42.5
0	51047	584.5	41.5
0	51048	584.5	40.5
0	51049	584.5	39.5
0	51050	584.5	38.5
0	51051	584.5	37.5
0	51052	584.5	36.5
0	51053	584.5	35.5
0	51054	584.5	34.5
0	51055	584.5	33.5
0	51056	584.5	32.5
0	51057	584.5	31.5
0	51058	584.5	30.5
0	51059	584.5	29.5
0	51060	584.5	28.5
0	51061	584.5	27.5
0	51062	584.5	26.5
0	51063	584.5	25.5
0	51064	584.5	24.5
0	51065	584.5	23.5
0	51066	584.5	22.5
0	51067	584.5	21.5
0	51068	584.5	20.5
0	51069	584.5	19.5
0	51070	584.5	18.5
0	51071	584.5	17.5
0	51072	584.5	16.5
0	51073	584.5	15.5
0	51074	584.5	14.5
0	51075	584.5	13.5
0	51076	584.5	12.5
0	51077	584.5	11.5
0	51078	584.5	10.5
0	51079	584.5	9.5
0	51080	584.5	8.5
0	51081	584.5	7.5
0	51082	584.5	6.5
0	51083	584.5	5.5
0	51084	584.5	4.5
0	51085	584.5	3.5
0	51086	584.5	2.5
0	51605	584.6	1.6
0	51661	585.6	1.6
0	52088	586.6	1.6
0	52394	587.6	1.6
0	53198	588.6	1.6
0	53266	589.6	1.6
0	53334	590.6	1.6
0	53402	591.6	1.6
0	53462	592.6	1.6
0	53522	593.6	1.6
0	53647	595.6	2.6
0	53648	595.6	1.6
0	53721	596.6	1.6
0	53781	597.6	1.6
0	53855	598.6	1.6
0	53917	599.6	1.6
0	53979	600.6	1.6
0	54041	601.6	1.6
0	54103	602.6	1.6
0	54165	603.6	1.6
0	54227	604.6	1.6
0	54314	605.6	1.6
0	54348	606.6	1.6
0	58647	709.3	103.3
0	58648	709.3	102.3
0	58649	709.3	101.3
0	58650	709.3	100.3
0	58651	709.3	99.3
0	58652	709.3	98.3
0	58653	709.3	97.3
0	58654	709.3	96.3
0	58655	709.3	95.3
0	58656	709.3	94.3
0	58657	709.3	93.3
0	58658	709.3	92.3
0	58659	709.3	91.3
0	58660	709.3	90.3
0	58661	709.3	89.3
0	58662	709.3	88.3
0	58663	709.3	87.3
0	58664	709.3	86.3
0	58665	709.3	85.3
0	58666	709.3	84.3
0	58667	709.3	83.3
0	58668	709.3	82.3
0	58669	709.3	81.3
0	58670	709.3	80.3
0	58671	709.3	79.3
0	58672	709.3	78.3
0	58673	709.3	77.3
0	58674	709.3	76.3
0	58675	709.3	75.3
0	58676	709.3	74.3
0	58677	709.3	73.3
0	58678	709.3	72.3
0	58679	709.3	71.3
0	58680	709.3	70.3
0	58681	709.3	69.3
0	58682	709.3	68.3
0	58683	709.3	67.3
0	58684	709.3	66.3
0	58685	709.3	65.3
0	58686	709.3	64.3
0	58687	709.3	63.3
0	58688	709.3	62.3
0	58689	709.3	61.3
0	58690	709.3	60.3
0	58691	709.3	59.3
0	58692	709.3	58.3
0	58693	709.3	57.3
0	58694	709.3	56.3
0	58695	709.3	55.3
0	58696	709.3	54.3
0	58697	709.3	53.3
0	58698	709.3	52.3
0	58699	709.3	51.3
0	58700	709.3	50.3
0	58701	709.3	49.3
0	58702	709.3	48.3
0	58703	709.3	47.3
0	58704	709.3	46.3
0	58705	709.3	45.3
0	58706	709.3	44.3
0	58707	709.3	43.3
0	58708	709.3	42.3
0	58709	709.3	41.3
0	58710	709.3	40.3
0	58711	709.3	39.3
0	58712	709.3	38.3
0	58713	709.3	37.3
0	58714	709.3	36.3
0	58715	709.3	35.3
0	58716	709.3	34.3
0	58717	709.3	33.3
0	58718	709.3	32.3
0	58719	709.3	31.3
0	58720	709.3	30.3
0	58721	709.3	29.3
0	58722	709.3	28.3
0	58723	709.3	27.3
0	58724	709.3	26.3
0	58725	709.3	25.3
0	58726	709.3	24.3
0	58727	709.3	23.3
0	58728	709.3	22.3
0	58729	709.3	21.3
0	58730	709.3	20.3
0	58731	709.3	19.3
0	58732	709.3	18.3
0	58733	709.3	17.3
0	58734	709.3	16.3
0	58735	709.3	15.3
0	58736	709.3	14.3
0	58737	709.3	13.3
0	58738	709.3	12.3
0	58739	709.3	11.3
0	58740	709.3	10.3
0	58741	709.3	9.3
0	58742	709.3	8.3
0	58743	709.3	7.3
0	58744	709.3	6.3
0	58745	709.3	5.3
0	58746	709.3	4.3
0	58747	709.3	3.3
0	58748	709.3	2.3
0	58749	709.3	1.3
0	59315	710.3	1.3
0	60100	711.3	1.3
0	60170	712.3	1.3
0	60239	713.3	1.3
0	60306	714.3	1.3
0	60373	715.3	1.3
0	60440	716.3	1.3
0	60507	717.3	1.3
0	60575	718.3	1.3
0	60686	719.3	1.3
0	60765	720.3	1.3
0	60846	721.3	1.3
0	60926	722.3	1.3
0	61004	723.3	1.3
0	61082	724.3	1.3
0	61162	725.3	1.3
0	61241	726.3	1.3
0	61322	727.3	1.3
0	61402	728.3	1.3
0	61482	729.3	1.3
0	61562	730.3	1.3
0	61643	731.3	1.3
0	61714	732.3	1.3
0	61785	733.3	1.3
0	61856	734.3	1.3
0	61927	735.3	1.3
0	61998	736.3	1.3
0	62069	737.3	1.3
0	62137	738.3	1.3
0	62490	746.3	7.3
0	62491	746.3	8.3
0	62492	746.3	6.3
0	62493	746.3	5.3
0	62494	746.3	4.3
0	62495	746.3	3.3
0	62496	746.3	2.3
0	62544	746.4	1.4
0	62608	747.4	1.4
0	62704	749.5	1.5
0	62766	750.5	1.5
0	62792	750.9	3.9
0	62842	751.5	1.5
0	62897	752.5	1.5
0	62948	753.5	1.5
0	62999	754.5	1.5
0	63050	755.5	1.5
0	63101	756.5	1.5
0	63149	757.5	1.5
0	63180	758.5	1.5
0	66885	828.4	70.4
0	66886	828.4	69.4
0	66887	828.4	68.4
0	66888	828.4	67.4
0	66889	828.4	66.4
0	66890	828.4	65.4
0	66891	828.4	64.4
0	66892	828.4	63.4
0	66893	828.4	62.4
0	66894	828.4	61.4
0	66895	828.4	60.4
0	66896	828.4	59.4
0	66897	828.4	58.4
0	66898	828.4	57.4
0	66899	828.4	56.4
0	66900	828.4	55.4
0	66901	828.4	54.4
0	66902	828.4	53.4
0	66903	828.4	52.4
0	66904	828.4	51.4
0	66905	828.4	50.4
0	66906	828.4	49.4
0	66907	828.4	48.4
0	66908	828.4	47.4
0	66909	828.4	46.4
0	66910	828.4	45.4
0	66911	828.4	44.4
0	66912	828.4	43.4
0	66913	828.4	42.4
0	66914	828.4	41.4
0	66915	828.4	40.4
0	66916	828.4	39.4
0	66917	828.4	38.4
0	66918	828.4	37.4
0	66919	828.4	36.4
0	66920	828.4	35.4
0	66921	828.4	34.4
0	66922	828.4	33.4
0	66923	828.4	32.4
0	66924	828.4	31.4
0	66925	828.4	30.4
0	66926	828.4	29.4
0	66927	828.4	28.4
0	66928	828.4	27.4
0	66929	828.4	26.4
0	66930	828.4	25.4
0	66931	828.4	24.4
0	66932	828.4	23.4
0	66933	828.4	22.4
0	66934	828.4	21.4
0	66935	828.4	20.4
0	66936	828.4	19.4
0	66937	828.4	18.4
0	66938	828.4	17.4
0	66939	828.4	16.4
0	66940	828.4	15.4
0	66941	828.4	14.4
0	66942	828.4	13.4
0	66943	828.4	12.4
0	66944	828.4	11.4
0	66945	828.4	10.4
0	66946	828.4	9.4
0	66947	828.4	8.4
0	66948	828.4	7.4
0	66949	828.4	6.4
0	66950	828.4	5.4
0	66951	828.4	4.4
0	66952	828.4	3.4
0	66953	828.4	2.4
0	66963	828.6	1.6
0	67021	829.6	1.6
0	67079	830.6	1.6
0	67139	831.6	1.6
0	67197	832.6	1.6
0	67255	833.6	1.6
0	67313	834.6	1.6
0	67374	835.6	1.6
0	67434	836.6	1.6
0	67494	837.6	1.6
0	67553	838.6	1.6
0	67611	839.6	1.6
0	67644	840.6	1.6
0	67675	841.5	1.5
0	67706	842.5	1.5
0	67739	843.5	1.5
0	67770	844.5	1.5
0	67809	845.5	1.5
0	67849	846.5	1.5
0	67882	847.5	1.5
0	67915	848.5	1.5
0	67950	849.5	1.5
0	67978	850.5	1.5
0	68006	851.5	1.5
0	68318	852.5	1.5
0	68535	853.5	1.5
0	68571	854.5	1.5
0	68607	855.5	1.5
0	68642	856.5	1.5
0	68677	857.5	1.5
0	68710	858.5	1.5
0	68742	859.5	1.5
0	68773	860.5	1.5
0	68804	861.5	1.5
0	68835	862.5	1.5
0	68942	863.5	1.5
0	68980	864.5	1.5
0	69018	865.5	1.5
0	69059	866.5	1.5
0	69098	867.5	1.5
0	69136	868.5	1.5
0	69177	869.5	1.5
0	69216	870.5	1.5
0	69255	871.5	1.5
0	84262	994.1	105.1
0	84263	994.1	104.1
0	84264	994.1	103.1
0	84265	994.1	102.1
0	84266	994.1	101.1
0	84267	994.1	100.1
0	84268	994.1	99.1
0	84269	994.1	98.1
0	84270	994.1	97.1
0	84271	994.1	96.1
0	84272	994.1	95.1
0	84273	994.1	94.1
0	84274	994.1	93.1
0	84275	994.1	92.1
0	84276	994.1	91.1
0	84277	994.1	119.1
0	84278	994.1	90.1
0	84279	994.1	116.1
0	84280	994.1	113.1
0	84281	994.1	110.1
0	84282	994.1	107.1
0	84283	994.1	121.1
0	84284	994.1	118.1
0	84285	994.1	115.1
0	84286	994.1	112.1
0	84287	994.1	109.1
0	84288	994.1	123.1
0	84289	994.1	106.1
0	84290	994.1	120.1
0	84291	994.1	117.1
0	84292	994.1	114.1
0	84293	994.1	111.1
0	84294	994.1	108.1
0	84295	994.1	122.1
0	84296	994.1	89.1
0	84297	994.1	88.1
0	84298	994.1	87.1
0	84299	994.1	86.1
0	84300	994.1	85.1
0	84301	994.1	84.1
0	84302	994.1	83.1
0	84303	994.1	82.1
0	84304	994.1	81.1
0	84305	994.1	80.1
0	84306	994.1	79.1
0	84307	994.1	78.1
0	84308	994.1	77.1
0	84309	994.1	76.1
0	84310	994.1	75.1
0	84311	994.1	74.1
0	84312	994.1	73.1
0	84313	994.1	72.1
0	84314	994.1	71.1
0	84315	994.1	70.1
0	84316	994.1	69.1
0	84317	994.1	68.1
0	84318	994.1	67.1
0	84319	994.1	66.1
0	84320	994.1	65.1
0	84321	994.1	64.1
0	84322	994.1	63.1
0	84323	994.1	62.1
0	84324	994.1	61.1
0	84325	994.1	60.1
0	84326	994.1	59.1
0	84327	994.1	58.1
0	84328	994.1	57.1
0	84329	994.1	56.1
0	84330	994.1	55.1
0	84331	994.1	54.1
0	84332	994.1	53.1
0	84333	994.1	52.1
0	84334	994.1	51.1
0	84335	994.1	50.1
0	84336	994.1	49.1
0	84337	994.1	48.1
0	84338	994.1	47.1
0	84339	994.1	46.1
0	84340	994.1	45.1
0	84341	994.1	144.1
0	84342	994.1	44.1
0	84343	994.1	236.1
0	84344	994.1	235.1
0	84345	994.1	234.1
0	84346	994.1	233.1
0	84347	994.1	232.1
0	84348	994.1	231.1
0	84349	994.1	230.1
0	84350	994.1	229.1
0	84351	994.1	228.1
0	84352	994.1	227.1
0	84353	994.1	226.1
0	84354	994.1	225.1
0	84355	994.1	224.1
0	84356	994.1	223.1
0	84357	994.1	222.1
0	84358	994.1	221.1
0	84359	994.1	220.1
0	84360	994.1	219.1
0	84361	994.1	218.1
0	84362	994.1	217.1
0	84363	994.1	216.1
0	84364	994.1	215.1
0	84365	994.1	214.1
0	84366	994.1	213.1
0	84367	994.1	212.1
0	84368	994.1	211.1
0	84369	994.1	210.1
0	84370	994.1	209.1
0	84371	994.1	208.1
0	84372	994.1	207.1
0	84373	994.1	206.1
0	84374	994.1	205.1
0	84375	994.1	204.1
0	84376	994.1	203.1
0	84377	994.1	202.1
0	84378	994.1	201.1
0	84379	994.1	200.1
0	84380	994.1	199.1
0	84381	994.1	198.1
0	84382	994.1	197.1
0	84383	994.1	196.1
0	84384	994.1	195.1
0	84385	994.1	194.1
0	84386	994.1	193.1
0	84387	994.1	192.1
0	84388	994.1	191.1
0	84389	994.1	190.1
0	84390	994.1	189.1
0	84391	994.1	188.1
0	84392	994.1	187.1
0	84393	994.1	186.1
0	84394	994.1	185.1
0	84395	994.1	184.1
0	84396	994.1	183.1
0	84397	994.1	182.1
0	84398	994.1	181.1
0	84399	994.1	180.1
0	84400	994.1	179.1
0	84401	994.1	178.1
0	84402	994.1	177.1
0	84403	994.1	176.1
0	84404	994.1	175.1
0	84405	994.1	174.1
0	84406	994.1	173.1
0	84407	994.1	172.1
0	84408	994.1	171.1
0	84409	994.1	170.1
0	84410	994.1	169.1
0	84411	994.1	168.1
0	84412	994.1	167.1
0	84413	994.1	166.1
0	84414	994.1	165.1
0	84415	994.1	164.1
0	84416	994.1	163.1
0	84417	994.1	162.1
0	84418	994.1	161.1
0	84419	994.1	160.1
0	84420	994.1	159.1
0	84421	994.1	158.1
0	84422	994.1	157.1
0	84423	994.1	156.1
0	84424	994.1	155.1
0	84425	994.1	154.1
0	84426	994.1	153.1
0	84427	994.1	152.1
0	84428	994.1	151.1
0	84429	994.1	150.1
0	84430	994.1	149.1
0	84431	994.1	148.1
0	84432	994.1	147.1
0	84433	994.1	146.1
0	84434	994.1	143.1
0	84435	994.1	43.1
0	84436	994.1	145.1
0	84437	994.1	142.1
0	84438	994.1	42.1
0	84439	994.1	141.1
0	84440	994.1	41.1
0	84441	994.1	140.1
0	84442	994.1	40.1
0	84443	994.1	139.1
0	84444	994.1	39.1
0	84445	994.1	138.1
0	84446	994.1	38.1
0	84447	994.1	137.1
0	84448	994.1	37.1
0	84449	994.1	136.1
0	84450	994.1	36.1
0	84451	994.1	135.1
0	84452	994.1	35.1
0	84453	994.1	134.1
0	84454	994.1	34.1
0	84455	994.1	133.1
0	84456	994.1	33.1
0	84457	994.1	132.1
0	84458	994.1	32.1
0	84459	994.1	131.1
0	84460	994.1	31.1
0	84461	994.1	130.1
0	84462	994.1	30.1
0	84463	994.1	129.1
0	84464	994.1	29.1
0	84465	994.1	128.1
0	84466	994.1	28.1
0	84467	994.1	127.1
0	84468	994.1	27.1
0	84469	994.1	126.1
0	84470	994.1	26.1
0	84471	994.1	125.1
0	84472	994.1	25.1
0	84473	994.1	124.1
0	84474	994.1	24.1
0	84475	994.1	123.1
0	84476	994.1	23.1
0	84477	994.1	122.1
0	84478	994.1	22.1
0	84479	994.1	121.1
0	84480	994.1	21.1
0	84481	994.1	123.1
0	84482	994.1	120.1
0	84483	994.1	20.1
0	84484	994.1	122.1
0	84485	994.1	119.1
0	84486	994.1	19.1
0	84487	994.1	121.1
0	84488	994.1	118.1
0	84489	994.1	18.1
0	84490	994.1	123.1
0	84491	994.1	120.1
0	84492	994.1	117.1
0	84493	994.1	17.1
0	84494	994.1	122.1
0	84495	994.1	119.1
0	84496	994.1	116.1
0	84497	994.1	16.1
0	84498	994.1	121.1
0	84499	994.1	118.1
0	84500	994.1	115.1
0	84501	994.1	15.1
0	84502	994.1	123.1
0	84503	994.1	120.1
0	84504	994.1	117.1
0	84505	994.1	114.1
0	84506	994.1	14.1
0	84507	994.1	122.1
0	84508	994.1	119.1
0	84509	994.1	116.1
0	84510	994.1	113.1
0	84511	994.1	13.1
0	84512	994.1	121.1
0	84513	994.1	118.1
0	84514	994.1	115.1
0	84515	994.1	112.1
0	84516	994.1	12.1
0	84517	994.1	123.1
0	84518	994.1	120.1
0	84519	994.1	117.1
0	84520	994.1	114.1
0	84521	994.1	111.1
0	84522	994.1	11.1
0	84523	994.1	122.1
0	84524	994.1	119.1
0	84525	994.1	116.1
0	84526	994.1	113.1
0	84527	994.1	110.1
0	84528	994.1	10.1
0	84529	994.1	121.1
0	84530	994.1	118.1
0	84531	994.1	115.1
0	84532	994.1	112.1
0	84533	994.1	123.1
0	84534	994.1	109.1
0	84535	994.1	9.1
0	84536	994.1	120.1
0	84537	994.1	117.1
0	84538	994.1	114.1
0	84539	994.1	111.1
0	84540	994.1	122.1
0	84541	994.1	108.1
0	84542	994.1	8.1
0	84543	994.1	119.1
0	84544	994.1	116.1
0	84545	994.1	113.1
0	84546	994.1	110.1
0	84547	994.1	121.1
0	84548	994.1	107.1
0	84549	994.1	7.1
0	84550	994.1	118.1
0	84551	994.1	115.1
0	84552	994.1	112.1
0	84553	994.1	109.1
0	84554	994.1	123.1
0	84555	994.1	120.1
0	84556	994.1	106.1
0	84557	994.1	6.1
0	84558	994.1	117.1
0	84559	994.1	114.1
0	84560	994.1	111.1
0	84561	994.1	108.1
0	84562	994.1	122.1
0	84563	994.1	5.1
0	84564	994.1	4.1
0	84565	994.1	3.1
0	84566	994.1	2.1
0	87037	994.4	1.4
0	87089	995.4	1.4
0	87876	996.4	1.4
0	88026	997.4	108.4
0	88027	997.4	107.4
0	88028	997.4	106.4
0	88029	997.4	105.4
0	88030	997.4	104.4
0	88031	997.4	103.4
0	88032	997.4	102.4
0	88033	997.4	101.4
0	88034	997.4	1.4
0	88181	998.4	101.4
0	88182	998.4	1.4
0	96282	999.4	101.4
0	96283	999.4	1.4
0	97072	1000.4	101.4
0	97073	1000.4	1.4
0	97305	1000.5	150.5
0	97306	1000.5	149.5
0	97307	1000.5	148.5
0	97308	1000.5	147.5
0	97309	1000.5	146.5
0	97310	1000.5	145.5
0	97311	1000.5	144.5
0	97312	1000.5	143.5
0	97313	1000.5	142.5
0	97314	1000.5	141.5
0	97315	1000.5	140.5
0	97316	1000.5	139.5
0	97317	1000.5	138.5
0	97318	1000.5	137.5
0	97319	1000.5	136.5
0	97320	1000.5	135.5
0	97321	1000.5	134.5
0	97322	1000.5	133.5
0	97323	1000.5	132.5
0	97324	1000.5	131.5
0	97325	1000.5	130.5
0	97586	1001.4	1.4
0	98051	1002.4	1.4
0	98174	1003.4	1.4
0	98289	1004.4	1.4
0	98368	1005.4	1.4
0	98447	1006.4	1.4
0	98526	1007.4	1.4
0	98607	1008.4	1.4
0	98680	1009.4	1.4
0	98826	1011.4	2.4
0	98827	1011.4	1.4
0	98889	1012.4	1.4
0	98940	1013.4	1.4
0	98977	1014.4	1.4
0	99026	1015.4	1.4
0	99090	1016.4	1.4
0	99158	1017.4	1.4
0	99221	1018.4	1.4
0	99321	1019.4	1.4
0	99390	1020.4	1.4
0	99443	1021.4	1.4
0	106726	1157.1	31.1
0	106727	1157.1	30.1
0	106728	1157.1	136.1
0	106729	1157.1	135.1
0	106730	1157.1	134.1
0	106731	1157.1	133.1
0	106732	1157.1	132.1
0	106733	1157.1	131.1
0	106734	1157.1	130.1
0	106735	1157.1	129.1
0	106736	1157.1	128.1
0	106737	1157.1	127.1
0	106738	1157.1	126.1
0	106739	1157.1	125.1
0	106740	1157.1	124.1
0	106741	1157.1	123.1
0	106742	1157.1	122.1
0	106743	1157.1	121.1
0	106744	1157.1	120.1
0	106745	1157.1	119.1
0	106746	1157.1	118.1
0	106747	1157.1	117.1
0	106748	1157.1	116.1
0	106749	1157.1	115.1
0	106750	1157.1	114.1
0	106751	1157.1	113.1
0	106752	1157.1	112.1
0	106753	1157.1	111.1
0	106754	1157.1	110.1
0	106755	1157.1	109.1
0	106756	1157.1	108.1
0	106757	1157.1	107.1
0	106758	1157.1	106.1
0	106759	1157.1	105.1
0	106760	1157.1	104.1
0	106761	1157.1	103.1
0	106762	1157.1	102.1
0	106763	1157.1	101.1
0	106764	1157.1	100.1
0	106765	1157.1	99.1
0	106766	1157.1	98.1
0	106767	1157.1	97.1
0	106768	1157.1	96.1
0	106769	1157.1	95.1
0	106770	1157.1	94.1
0	106771	1157.1	93.1
0	106772	1157.1	92.1
0	106773	1157.1	91.1
0	106774	1157.1	90.1
0	106775	1157.1	89.1
0	106776	1157.1	88.1
0	106777	1157.1	87.1
0	106778	1157.1	86.1
0	106779	1157.1	85.1
0	106780	1157.1	84.1
0	106781	1157.1	83.1
0	106782	1157.1	82.1
0	106783	1157.1	81.1
0	106784	1157.1	80.1
0	106785	1157.1	79.1
0	106786	1157.1	78.1
0	106787	1157.1	77.1
0	106788	1157.1	76.1
0	106789	1157.1	75.1
0	106790	1157.1	74.1
0	106791	1157.1	73.1
0	106792	1157.1	72.1
0	106793	1157.1	71.1
0	106794	1157.1	70.1
0	106795	1157.1	69.1
0	106796	1157.1	68.1
0	106797	1157.1	67.1
0	106798	1157.1	66.1
0	106799	1157.1	65.1
0	106800	1157.1	64.1
0	106801	1157.1	63.1
0	106802	1157.1	62.1
0	106803	1157.1	61.1
0	106804	1157.1	60.1
0	106805	1157.1	59.1
0	106806	1157.1	58.1
0	106807	1157.1	57.1
0	106808	1157.1	56.1
0	106809	1157.1	55.1
0	106810	1157.1	54.1
0	106811	1157.1	53.1
0	106812	1157.1	52.1
0	106813	1157.1	51.1
0	106814	1157.1	50.1
0	106815	1157.1	49.1
0	106816	1157.1	48.1
0	106817	1157.1	47.1
0	106818	1157.1	46.1
0	106819	1157.1	45.1
0	106820	1157.1	44.1
0	106821	1157.1	43.1
0	106822	1157.1	42.1
0	106823	1157.1	41.1
0	106824	1157.1	40.1
0	106825	1157.1	39.1
0	106826	1157.1	38.1
0	106827	1157.1	37.1
0	106828	1157.1	36.1
0	106829	1157.1	35.1
0	106830	1157.1	34.1
0	106831	1157.1	33.1
0	106832	1157.1	29.1
0	106833	1157.1	28.1
0	106834	1157.1	27.1
0	106835	1157.1	26.1
0	106836	1157.1	25.1
0	106837	1157.1	24.1
0	106838	1157.1	23.1
0	106839	1157.1	22.1
0	106840	1157.1	21.1
0	106841	1157.1	20.1
0	106842	1157.1	19.1
0	106843	1157.1	18.1
0	106844	1157.1	17.1
0	106845	1157.1	16.1
0	106846	1157.1	15.1
0	106847	1157.1	14.1
0	106848	1157.1	13.1
0	106849	1157.1	12.1
0	106850	1157.1	11.1
0	106851	1157.1	10.1
0	106852	1157.1	9.1
0	106853	1157.1	32.1
0	106854	1157.1	8.1
0	106855	1157.1	7.1
0	106856	1157.1	6.1
0	106857	1157.1	5.1
0	106858	1157.1	4.1
0	106859	1157.1	3.1
0	107553	1157.2	1.2
0	108277	1158.2	1.2
0	108327	1159.2	1.2
0	108377	1160.2	1.2
0	108427	1161.2	1.2
0	108477	1162.2	1.2
0	108527	1163.2	1.2
0	108577	1164.2	1.2
0	108626	1165.2	1.2
0	108675	1166.2	1.2
0	108724	1167.2	1.2
0	108776	1168.2	1.2
0	108826	1169.2	1.2
0	108878	1170.2	1.2
0	108927	1171.2	1.2
0	108976	1172.2	1.2
0	109025	1173.2	1.2
0	109074	1174.2	1.2
0	109123	1175.2	1.2
0	109173	1176.2	1.2
0	109222	1177.2	1.2
0	109273	1178.2	1.2
0	109323	1179.2	1.2
0	109375	1180.2	1.2
0	109427	1181.2	1.2
0	109478	1182.2	1.2
0	109528	1183.2	1.2
0	109577	1184.2	1.2
0	109623	1185.2	1.2
0	109706	1187.2	2.2
0	109707	1187.2	1.2
0	109767	1188.2	1.2
0	109815	1189.2	1.2
0	109863	1190.2	1.2
0	109919	1191.2	1.2
0	110011	1192.3	1.3
0	110035	1192.4	37.4
0	110113	1193.3	1.3
0	110201	1194.3	1.3
0	110275	1195.3	1.3
0	110349	1196.3	1.3
0	110423	1197.3	1.3
0	110497	1198.3	1.3
0	110572	1199.3	1.3
0	110634	1200.3	1.3
0	110694	1201.3	1.3
0	110754	1202.3	1.3
0	110814	1203.3	1.3
0	110874	1204.3	1.3
0	110934	1205.3	1.3
0	110997	1206.3	1.3
0	111059	1207.3	1.3
0	111121	1208.3	1.3
0	111183	1209.3	1.3
0	111241	1210.3	1.3
0	111293	1211.3	1.3
0	111336	1212.3	1.3
0	111379	1213.3	1.3
0	111425	1214.3	1.3
0	111469	1215.3	1.3
0	111538	1217.5	1.5
0	111579	1218.5	1.5
0	111620	1219.5	1.5
0	111661	1220.5	1.5
0	111881	1221.1	6.1
0	111912	1221.5	1.5
0	111956	1222.5	1.5
0	112009	1223.5	1.5
0	112056	1224.3	1.3
0	112330	1225.3	1.3
0	112387	1226.3	1.3
0	112448	1227.3	1.3
0	112507	1228.3	1.3
0	112667	1229.3	1.3
0	112754	1231.5	1.5
0	112777	1231.7	2.7
0	112826	1232.5	1.5
0	112875	1233.5	1.5
0	112929	1234.5	1.5
0	112980	1235.5	1.5
0	113024	1236.4	1.4
0	113073	1237.4	1.4
0	113122	1238.4	1.4
0	113171	1239.4	1.4
0	113373	1240.4	1.4
0	113428	1241.4	1.4
0	113483	1242.4	1.4
0	113537	1243.4	1.4
0	113591	1244.4	1.4
0	113646	1245.4	1.4
0	113688	1246.4	1.4
0	113733	1247.4	1.4
0	113781	1248.4	1.4
0	113825	1249.4	1.4
0	113869	1250.4	1.4
0	114056	1251.4	1.4
0	114276	1252.3	1.3
0	114335	1253.3	1.3
0	114401	1254.3	1.3
0	114466	1255.3	1.3
0	114532	1256.3	1.3
0	114733	1257.3	1.3
0	114800	1258.3	1.3
0	114866	1259.3	1.3
0	114932	1260.3	1.3
0	115000	1261.3	1.3
0	115067	1262.3	1.3
0	115137	1263.3	1.3
0	115209	1264.3	1.3
0	115279	1265.3	1.3
0	115456	1266.3	1.3
0	115541	1267.3	1.3
0	115624	1268.3	1.3
0	115707	1269.3	1.3
0	115790	1270.3	1.3
0	115871	1271.3	1.3
0	115952	1272.3	1.3
0	116033	1273.3	1.3
0	116114	1274.3	1.3
0	116195	1275.3	1.3
0	116276	1276.3	1.3
0	116355	1277.3	1.3
0	116434	1278.3	1.3
0	116516	1279.3	1.3
0	117737	1306.1	27.1
0	117738	1306.1	26.1
0	117739	1306.1	25.1
0	117740	1306.1	24.1
0	117741	1306.1	23.1
0	117742	1306.1	22.1
0	117743	1306.1	21.1
0	117744	1306.1	20.1
0	117745	1306.1	19.1
0	117746	1306.1	18.1
0	117747	1306.1	17.1
0	117748	1306.1	16.1
0	117749	1306.1	15.1
0	117750	1306.1	14.1
0	117751	1306.1	13.1
0	117752	1306.1	12.1
0	117753	1306.1	11.1
0	117754	1306.1	10.1
0	117755	1306.1	9.1
0	117756	1306.1	8.1
0	117757	1306.1	7.1
0	117758	1306.1	6.1
0	117759	1306.1	5.1
0	117760	1306.1	4.1
0	119659	1351.6	48.6
0	119660	1351.6	47.6
0	119661	1351.6	46.6
0	119662	1351.6	45.6
0	119663	1351.6	44.6
0	119664	1351.6	43.6
0	119665	1351.6	42.6
0	119666	1351.6	41.6
0	119667	1351.6	40.6
0	119668	1351.6	39.6
0	119669	1351.6	38.6
0	119670	1351.6	37.6
0	119671	1351.6	36.6
0	119672	1351.6	35.6
0	119673	1351.6	34.6
0	119674	1351.6	33.6
0	119675	1351.6	32.6
0	119676	1351.6	31.6
0	119677	1351.6	30.6
0	119678	1351.6	29.6
0	119679	1351.6	28.6
0	119680	1351.6	27.6
0	119681	1351.6	26.6
0	119682	1351.6	25.6
0	119683	1351.6	24.6
0	119684	1351.6	23.6
0	119685	1351.6	22.6
0	119686	1351.6	21.6
0	119687	1351.6	20.6
0	119688	1351.6	19.6
0	119689	1351.6	18.6
0	119690	1351.6	17.6
0	119691	1351.6	16.6
0	119692	1351.6	15.6
0	119693	1351.6	14.6
0	119694	1351.6	13.6
0	119695	1351.6	12.6
0	119696	1351.6	11.6
0	119697	1351.6	10.6
0	119698	1351.6	9.6
0	119699	1351.6	8.6
0	119700	1351.6	7.6
0	119701	1351.6	6.6
0	119702	1351.6	5.6
0	119703	1351.6	4.6
0	119704	1351.6	3.6
0	119705	1351.6	2.6
0	119706	1351.6	1.6
0	120618	1352.6	1.6
0	121120	1353.6	1.6
0	121199	1354.6	1.6
0	121278	1355.6	1.6
0	121357	1356.6	1.6
0	121436	1357.6	1.6
0	121515	1358.6	1.6
0	121594	1359.6	1.6
0	121676	1360.6	1.6
0	121753	1361.6	1.6
0	121838	1362.6	1.6
0	121903	1363.6	1.6
0	121986	1364.6	1.6
0	122052	1365.6	1.6
0	122116	1366.6	1.6
0	122180	1367.6	1.6
0	122244	1368.6	1.6
0	122308	1369.6	1.6
0	122369	1370.6	1.6
0	122758	1382.1	12.1
0	122759	1382.1	11.1
0	122760	1382.1	10.1
0	122761	1382.1	9.1
0	122762	1382.1	8.1
0	122763	1382.1	7.1
0	122764	1382.1	6.1
0	122765	1382.1	5.1
0	122766	1382.1	4.1
0	122767	1382.1	3.1
0	122768	1382.1	2.1
0	122847	1382.2	1.2
0	122913	1383.2	1.2
0	122956	1384.2	1.2
0	122999	1385.2	1.2
0	123042	1386.2	1.2
0	123088	1387.2	1.2
0	123132	1388.2	1.2
0	123176	1389.2	1.2
0	123217	1390.2	1.2
0	123262	1391.2	1.2
0	123307	1392.2	1.2
0	123350	1393.2	1.2
0	123395	1394.2	1.2
0	123438	1395.2	1.2
0	123484	1396.2	1.2
0	123527	1397.2	1.2
0	123557	1398.2	1.2
0	123761	1404.2	6.2
0	123762	1404.2	5.2
0	123763	1404.2	4.2
0	123764	1404.2	3.2
0	123765	1404.2	2.2
0	123766	1404.2	1.2
0	123846	1405.2	1.2
0	123927	1406.3	1.3
0	123997	1407.3	1.3
0	124070	1408.3	1.3
0	124141	1409.3	1.3
0	124181	1410.2	1.2
0	124219	1411.2	1.2
0	124260	1412.2	1.2
0	124301	1413.2	1.2
0	124345	1414.2	1.2
0	124388	1415.2	1.2
0	124431	1416.2	1.2
0	124476	1417.2	1.2
0	124520	1418.2	1.2
0	124606	1419.2	1.2
0	124657	1420.2	1.2
0	124708	1421.2	1.2
0	124759	1422.2	1.2
0	124810	1423.2	1.2
0	124861	1424.2	1.2
0	124912	1425.2	1.2
0	124963	1426.2	1.2
0	125014	1427.2	1.2
0	125065	1428.2	1.2
0	125116	1429.2	1.2
0	125167	1430.2	1.2
0	125218	1431.2	1.2
0	125269	1432.2	1.2
0	125320	1433.2	1.2
0	125371	1434.2	1.2
0	125422	1435.2	1.2
0	125473	1436.2	1.2
0	125529	1437.2	1.2
0	125581	1438.2	1.2
0	125633	1439.2	1.2
0	125685	1440.2	1.2
0	125740	1441.2	1.2
0	125793	1442.2	1.2
0	125842	1443.2	1.2
0	125956	1445.2	2.2
0	125957	1445.2	1.2
0	126010	1446.2	1.2
0	126059	1447.2	1.2
0	126110	1448.2	1.2
0	126157	1449.2	1.2
0	126304	1450.2	1.2
0	126357	1451.2	1.2
0	126456	1452.2	1.2
0	126509	1453.2	1.2
0	126578	1454.3	1.3
0	126633	1455.3	1.3
0	126688	1456.3	1.3
0	126743	1457.3	1.3
0	126797	1458.3	1.3
0	126852	1459.3	1.3
0	126909	1460.3	1.3
0	126963	1461.3	1.3
0	127017	1462.3	1.3
0	127070	1463.3	1.3
0	127123	1464.3	1.3
0	127176	1465.3	1.3
0	127229	1466.3	1.3
0	127281	1467.3	1.3
0	127332	1468.3	1.3
0	127380	1469.3	1.3
0	127431	1470.3	1.3
0	127478	1471.3	1.3
0	127541	1472.3	1.3
0	127597	1473.3	1.3
0	127653	1474.3	1.3
0	127709	1475.3	1.3
0	127766	1476.3	1.3
0	127822	1477.3	1.3
0	127878	1478.3	1.3
0	127934	1479.3	1.3
0	127990	1480.3	1.3
0	128057	1481.3	1.3
0	128125	1482.3	1.3
0	128182	1483.3	1.3
0	128242	1484.3	1.3
0	128300	1485.3	1.3
0	128358	1486.3	1.3
0	128419	1487.3	1.3
0	128474	1488.3	1.3
0	128527	1489.3	1.3
0	128580	1490.3	1.3
0	128633	1491.3	1.3
0	128688	1492.3	1.3
0	128742	1493.3	1.3
0	128793	1494.3	1.3
0	128875	1496.1	2.1
0	128907	1496.3	1.3
0	128961	1497.3	1.3
0	129010	1498.3	1.3
0	129055	1499.3	1.3
0	129118	1500.3	1.3
0	129171	1501.3	1.3
0	129211	1502.3	1.3
0	129266	1503.5	1.5
0	129407	1504.5	1.5
0	129471	1505.5	1.5
0	129536	1506.5	1.5
0	129590	1507.5	1.5
0	129643	1508.5	1.5
0	129711	1509.3	101.3
0	129749	1510.2	101.2
0	129788	1510.5	2.5
0	129789	1510.5	1.5
0	129833	1511.2	101.2
0	129850	1511.5	1.5
0	129906	1512.2	101.2
0	129921	1512.5	1.5
0	129963	1513.2	101.2
0	129978	1513.5	1.5
0	130009	1514.2	101.2
0	130024	1514.5	1.5
0	130055	1515.2	101.2
0	130070	1515.5	1.5
0	130101	1516.2	101.2
0	130116	1516.5	1.5
0	130147	1517.2	101.2
0	130162	1517.5	1.5
0	130193	1518.2	101.2
0	130208	1518.5	1.5
0	130239	1519.2	101.2
0	130254	1519.5	1.5
0	130285	1520.2	101.2
0	130300	1520.5	1.5
0	130331	1521.2	101.2
0	130346	1521.5	1.5
0	130378	1522.2	101.2
0	130387	1522.5	1.5
0	130417	1523.2	101.2
0	130426	1523.5	1.5
0	130456	1524.2	101.2
0	130465	1524.5	1.5
0	130495	1525.2	101.2
0	130504	1525.5	1.5
0	130534	1526.2	101.2
0	130543	1526.5	1.5
0	130573	1527.2	101.2
0	130582	1527.5	1.5
0	130612	1528.2	101.2
0	130621	1528.5	1.5
0	130651	1529.2	101.2
0	130660	1529.5	1.5
0	130690	1530.2	101.2
0	130699	1530.5	1.5
0	130729	1531.2	101.2
0	130738	1531.5	1.5
0	130771	1532.2	101.2
0	130780	1532.5	1.5
0	130867	1533.2	101.2
0	130882	1533.5	1.5
0	130934	1534.5	1.5
0	131182	1541.5	1.5
0	131220	1542.5	1.5
0	131257	1543.5	1.5
0	131295	1544.5	1.5
0	132111	1545.5	1.5
0	132155	1546.5	1.5
0	133766	1590.1	44.1
0	133767	1590.1	43.1
0	133768	1590.1	42.1
0	133769	1590.1	41.1
0	133770	1590.1	40.1
0	133771	1590.1	39.1
0	133772	1590.1	38.1
0	133773	1590.1	37.1
0	133774	1590.1	36.1
0	133775	1590.1	35.1
0	133776	1590.1	34.1
0	133931	1603.5	101.5
0	133956	1604.5	101.5
0	133981	1605.5	101.5
0	134006	1606.5	101.5
0	134031	1607.5	101.5
0	134055	1608.5	101.5
0	134081	1609.3	201.3
0	134205	1610.5	102.5
0	134206	1610.5	101.5
0	134249	1611.5	101.5
0	134282	1612.5	101.5
0	134314	1613.5	101.5
0	134346	1614.5	101.5
0	134378	1615.5	101.5
0	134410	1616.5	101.5
0	134442	1617.5	101.5
0	134474	1618.5	101.5
0	134506	1619.5	101.5
0	134538	1620.5	101.5
0	134572	1621.5	101.5
0	134605	1622.5	101.5
0	134638	1623.5	101.5
0	134671	1624.5	101.5
0	134704	1625.5	101.5
0	134737	1626.5	101.5
0	134770	1627.5	101.5
0	135063	1628.5	101.5
0	135668	1629.1	69.1
0	135669	1629.1	68.1
0	135670	1629.1	67.1
0	135671	1629.1	66.1
0	135672	1629.1	196.1
0	135673	1629.1	195.1
0	135674	1629.1	95.1
0	135675	1629.1	194.1
0	135676	1629.1	94.1
0	135677	1629.1	193.1
0	135678	1629.1	93.1
0	135679	1629.1	192.1
0	135680	1629.1	92.1
0	135681	1629.1	191.1
0	135682	1629.1	91.1
0	135683	1629.1	190.1
0	135684	1629.1	90.1
0	135685	1629.1	189.1
0	135686	1629.1	188.1
0	135687	1629.1	187.1
0	135688	1629.1	186.1
0	135689	1629.1	185.1
0	135690	1629.1	72.1
0	135691	1629.1	71.1
0	135692	1629.1	70.1
0	140527	1716.2	152.2
0	140528	1716.2	151.2
0	140529	1716.2	150.2
0	140530	1716.2	149.2
0	140531	1716.2	148.2
0	140532	1716.2	147.2
0	140533	1716.2	146.2
0	140534	1716.2	145.2
0	140535	1716.2	144.2
0	140536	1716.2	143.2
0	140537	1716.2	142.2
0	140538	1716.2	141.2
0	140539	1716.2	140.2
0	140540	1716.2	139.2
0	140541	1716.2	138.2
0	140542	1716.2	137.2
0	140543	1716.2	136.2
0	140544	1716.2	135.2
0	140545	1716.2	134.2
0	140546	1716.2	133.2
0	140547	1716.2	132.2
0	140548	1716.2	131.2
0	140549	1716.2	130.2
0	140550	1716.2	129.2
0	140551	1716.2	128.2
0	140552	1716.2	127.2
0	140553	1716.2	126.2
0	140554	1716.2	125.2
0	140555	1716.2	124.2
0	140556	1716.2	123.2
0	140557	1716.2	122.2
0	140558	1716.2	121.2
0	140559	1716.2	120.2
0	140560	1716.2	119.2
0	140561	1716.2	118.2
0	140562	1716.2	117.2
0	140563	1716.2	116.2
0	140564	1716.2	115.2
0	140565	1716.2	114.2
0	140566	1716.2	113.2
0	140567	1716.2	112.2
0	140568	1716.2	111.2
0	140569	1716.2	110.2
0	140570	1716.2	109.2
0	140571	1716.2	108.2
0	140572	1716.2	107.2
0	140573	1716.2	106.2
0	140574	1716.2	105.2
0	140575	1716.2	104.2
0	140576	1716.2	103.2
0	140577	1716.2	102.2
0	140578	1716.2	101.2
0	140579	1716.2	100.2
0	140580	1716.2	99.2
0	140581	1716.2	98.2
0	140582	1716.2	97.2
0	140583	1716.2	96.2
0	140584	1716.2	95.2
0	140585	1716.2	94.2
0	140586	1716.2	93.2
0	140587	1716.2	92.2
0	140588	1716.2	91.2
0	140589	1716.2	90.2
0	140590	1716.2	89.2
0	140591	1716.2	88.2
0	140592	1716.2	87.2
0	140593	1716.2	86.2
0	140594	1716.2	85.2
0	140595	1716.2	84.2
0	140596	1716.2	83.2
0	140597	1716.2	82.2
0	140598	1716.2	81.2
0	140599	1716.2	80.2
0	140600	1716.2	79.2
0	140601	1716.2	78.2
0	140602	1716.2	77.2
0	140603	1716.2	76.2
0	140604	1716.2	75.2
0	140605	1716.2	74.2
0	140606	1716.2	73.2
0	140607	1716.2	72.2
0	140608	1716.2	71.2
0	140609	1716.2	70.2
0	140610	1716.2	69.2
0	140611	1716.2	68.2
0	140612	1716.2	67.2
0	140613	1716.2	66.2
0	140614	1716.2	65.2
0	140615	1716.2	64.2
0	140616	1716.2	63.2
0	140617	1716.2	62.2
0	140618	1716.2	61.2
0	140619	1716.2	60.2
0	140620	1716.2	59.2
0	140621	1716.2	58.2
0	140622	1716.2	57.2
0	140623	1716.2	56.2
0	140624	1716.2	55.2
0	140625	1716.2	54.2
0	140626	1716.2	53.2
0	140627	1716.2	52.2
0	140628	1716.2	51.2
0	140629	1716.2	50.2
0	140630	1716.2	49.2
0	140631	1716.2	48.2
0	140632	1716.2	47.2
0	140633	1716.2	46.2
0	140634	1716.2	45.2
0	140635	1716.2	44.2
0	140636	1716.2	43.2
0	140637	1716.2	42.2
0	140638	1716.2	41.2
0	140639	1716.2	40.2
0	140640	1716.2	39.2
0	140641	1716.2	38.2
0	140642	1716.2	37.2
0	140643	1716.2	36.2
0	140644	1716.2	35.2
0	140645	1716.2	34.2
0	140646	1716.2	33.2
0	140647	1716.2	32.2
0	140648	1716.2	31.2
0	140649	1716.2	30.2
0	140650	1716.2	29.2
0	140651	1716.2	28.2
0	140652	1716.2	27.2
0	140653	1716.2	26.2
0	140654	1716.2	25.2
0	140655	1716.2	24.2
0	140656	1716.2	23.2
0	140657	1716.2	22.2
0	140658	1716.2	21.2
0	140659	1716.2	20.2
0	140660	1716.2	19.2
0	140661	1716.2	18.2
0	140662	1716.2	17.2
0	140663	1716.2	16.2
0	140664	1716.2	15.2
0	140665	1716.2	14.2
0	140666	1716.2	13.2
0	140667	1716.2	12.2
0	140668	1716.2	11.2
0	140669	1716.2	10.2
0	140670	1716.2	9.2
0	140671	1716.2	8.2
0	140672	1716.2	7.2
0	140673	1716.2	6.2
0	140674	1716.2	5.2
0	140675	1716.2	4.2
0	140676	1716.2	3.2
0	140677	1716.2	2.2
0	140678	1716.2	1.2
0	141484	1717.2	1.2
0	143363	1718.2	1.2
0	143430	1719.2	1.2
0	143521	1720.3	1.3
0	143604	1721.3	1.3
0	143673	1722.3	1.3
0	143745	1723.3	1.3
0	143812	1724.3	1.3
0	143943	1726.3	2.3
0	143944	1726.3	1.3
0	144027	1727.3	1.3
0	144126	1728.3	1.3
0	144223	1729.3	1.3
0	144294	1730.3	1.3
0	144365	1731.3	1.3
0	144436	1732.3	1.3
0	144507	1733.3	1.3
0	144578	1734.3	1.3
0	144649	1735.3	1.3
0	144720	1736.3	1.3
0	144790	1737.3	1.3
0	144860	1738.3	1.3
0	144928	1739.3	1.3
0	144996	1740.3	1.3
0	145067	1741.3	1.3
0	145136	1742.3	1.3
0	145205	1743.3	1.3
0	145274	1744.3	1.3
0	145343	1745.3	1.3
0	145412	1746.3	1.3
0	145480	1747.3	1.3
0	145531	1748.3	1.3
0	145594	1749.3	1.3
0	145658	1750.3	1.3
0	145734	1751.3	1.3
0	145802	1752.3	1.3
0	145881	1753.3	1.3
0	145955	1754.3	1.3
0	146029	1755.3	1.3
0	146103	1756.3	1.3
0	146177	1757.3	1.3
0	146251	1758.3	1.3
0	146319	1759.3	1.3


