version 2
run General-0-20250128-19:30:29-109145
attr configname General
attr datetime 20250128-19:30:29
attr experiment General
attr inifile shaw_mine.ini
attr iterationvars ""
attr iterationvarsf ""
attr measurement ""
attr network src.dtnsim
attr processid 109145
attr repetition 0
attr replication #0
attr resultdir results
attr runnumber 0
attr seedset 0
param dtnsim.central.contactsFile "\"contactPlan/Contacts.txt\""
param dtnsim.central.contactsFile_A "\"contactPlan/Contacts.txt\""
param dtnsim.central.contactsFile_B "\"contactPlan/Contacts.txt\""
param dtnsim.central.contactIdsToDelete "\"8 9 10 12 16 28 32 36 40 41 43 47 49 50 51 52 59 62 75 77 85 89 90 96 101 102 107 110 119 122 130 152 153 154 155 159 167 173 176 178 180 185 187 190 193 196 199 201 202 204 207 209 214 226 231 236 237 238 241 245 247 249 253 255 267 278 279 283 286 288 292 294 295 303 304 310 311 319 325 326 331 332 335 342 345 349 351 360 362 364 368 370 373 377 387 389 394 396 398 399\""
param dtnsim.central.contactIdsToDelete_from_celestialA "\"9 10 32 40 41 49 52 77 85 89 96 101 110 119 130 152 154 159 173 176 178 180 187 193 199 201 204 207 214 226 231 241 245 247 278 283 286 288 304 325 332 335 345 349 351 362 368 370 373 387 389 399\""
param dtnsim.central.contactIdsToDelete_from_celestialB "\"8 12 16 28 36 43 47 50 51 59 62 75 90 102 107 122 153 155 167 185 190 196 202 209 236 237 238 249 253 255 267 279 292 294 295 303 310 311 319 326 331 342 360 364 377 394 396 398\""
param dtnsim.central.celestialA_nodes "\"1 2 3\""
param dtnsim.central.celestialB_nodes "\"4 5 6\""
param dtnsim.central.locallyfaultsAware true
param dtnsim.central.mode_two_celestial true
param dtnsim.central.faultsAware false
param dtnsim.nodesNumber 6
param dtnsim.node[1].icon "\"receiverdish\""
param dtnsim.node[2..5].icon "\"satellite\""
param dtnsim.node[6].icon "\"receiverdish\""
param dtnsim.node[*].dtn.routing "\"cgrModel350\""
param dtnsim.node[*].dtn.routingType "\"routeListType:allPaths-firstEnding,volumeAware:allContacts,extensionBlock:on,contactPlan:global\""
param dtnsim.node[1].app.enable true
param dtnsim.node[1].app.custodyTransfer true
param dtnsim.node[1].app.bundlesNumber "\"2000\""
param dtnsim.node[1].app.start "\"0\""
param dtnsim.node[1].app.destinationEid "\"6\""
param dtnsim.node[1].app.size "\"1500\""
param dtnsim.node[1].app.interval 10
param dtnsim.node[*].app.custodyTimeout 100000000000000
param dtnsim.node[1].app.ttl 5000

vector 0 dtnsim.node[6].app appBundleReceivedDelayvec:vector ETV
attr interpolationmode none
attr source appBundleReceivedDelay
attr title "appBundleReceivedDelayvec, vector"
0	198097	3656.1	3316.1
0	198098	3656.1	3216.1
0	198099	3656.1	3116.1
0	198100	3656.1	3016.1
0	198101	3656.1	2916.1
0	198102	3656.1	3316.1
0	198103	3656.1	3216.1
0	198104	3656.1	3116.1
0	198105	3656.1	3016.1
0	198106	3656.1	2916.1
0	198107	3656.1	3316.1
0	198108	3656.1	3216.1
0	198109	3656.1	3116.1
0	198110	3656.1	3016.1
0	198111	3656.1	2916.1
0	198112	3656.1	3316.1
0	198113	3656.1	3216.1
0	198114	3656.1	3116.1
0	198115	3656.1	3016.1
0	198116	3656.1	2916.1
0	198117	3656.1	2816.1
0	198118	3656.1	2716.1
0	198119	3656.1	2616.1
0	198120	3656.1	2516.1
0	198121	3656.1	2416.1
0	198122	3656.1	2316.1
0	198123	3656.1	2216.1
0	198124	3656.1	2116.1
0	198125	3656.1	2016.1
0	198126	3656.1	1916.1
0	198127	3656.1	1816.1
0	198128	3656.1	1716.1
0	198129	3656.1	1616.1
0	198130	3656.1	1516.1
0	198131	3656.1	1416.1
0	198132	3656.1	3316.1
0	198133	3656.1	3216.1
0	198134	3656.1	3116.1
0	198135	3656.1	3016.1
0	198136	3656.1	2916.1
0	198137	3656.1	2816.1
0	198138	3656.1	2716.1
0	198139	3656.1	2616.1
0	198140	3656.1	2516.1
0	198141	3656.1	2416.1
0	198142	3656.1	2316.1
0	198143	3656.1	2216.1
0	198144	3656.1	2116.1
0	198145	3656.1	2016.1
0	198146	3656.1	1916.1
0	198147	3656.1	1816.1
0	198148	3656.1	1716.1
0	198149	3656.1	1616.1
0	198150	3656.1	1516.1
0	198151	3656.1	1416.1
0	198152	3656.1	1316.1
0	198153	3656.1	3306.1
0	198154	3656.1	3206.1
0	198155	3656.1	3106.1
0	198156	3656.1	3006.1
0	198157	3656.1	2906.1
0	198158	3656.1	3306.1
0	198159	3656.1	3206.1
0	198160	3656.1	3106.1
0	198161	3656.1	3006.1
0	198162	3656.1	2906.1
0	198163	3656.1	3306.1
0	198164	3656.1	3206.1
0	198165	3656.1	3106.1
0	198166	3656.1	3006.1
0	198167	3656.1	2906.1
0	198168	3656.1	3306.1
0	198169	3656.1	3206.1
0	198170	3656.1	3106.1
0	198171	3656.1	3006.1
0	198172	3656.1	2906.1
0	198173	3656.1	2806.1
0	198174	3656.1	2706.1
0	198175	3656.1	2606.1
0	198176	3656.1	2506.1
0	198177	3656.1	2406.1
0	198178	3656.1	2306.1
0	198179	3656.1	2206.1
0	198180	3656.1	2106.1
0	198181	3656.1	2006.1
0	198182	3656.1	1906.1
0	198183	3656.1	1806.1
0	198184	3656.1	1706.1
0	198185	3656.1	1606.1
0	198186	3656.1	1506.1
0	198187	3656.1	1406.1
0	198188	3656.1	3306.1
0	198189	3656.1	3206.1
0	198190	3656.1	3106.1
0	198191	3656.1	3006.1
0	198192	3656.1	2906.1
0	198193	3656.1	2806.1
0	198194	3656.1	2706.1
0	198195	3656.1	2606.1
0	198196	3656.1	2506.1
0	198197	3656.1	2406.1
0	198198	3656.1	2306.1
0	198199	3656.1	2206.1
0	198200	3656.1	2106.1
0	198201	3656.1	2006.1
0	198202	3656.1	1906.1
0	198203	3656.1	1806.1
0	198204	3656.1	1706.1
0	198205	3656.1	1606.1
0	198206	3656.1	1506.1
0	198207	3656.1	1406.1
0	198208	3656.1	1306.1
0	198209	3656.1	3296.1
0	198210	3656.1	3196.1
0	198211	3656.1	3096.1
0	198212	3656.1	2996.1
0	198213	3656.1	2896.1
0	198214	3656.1	3296.1
0	198215	3656.1	3196.1
0	198216	3656.1	3096.1
0	198217	3656.1	2996.1
0	198218	3656.1	2896.1
0	198219	3656.1	3296.1
0	198220	3656.1	3196.1
0	198221	3656.1	3096.1
0	198222	3656.1	2996.1
0	198223	3656.1	2896.1
0	198224	3656.1	3296.1
0	198225	3656.1	3196.1
0	198226	3656.1	3096.1
0	198227	3656.1	2996.1
0	198228	3656.1	2896.1
0	198229	3656.1	2796.1
0	198230	3656.1	2696.1
0	198231	3656.1	2596.1
0	198232	3656.1	2496.1
0	198233	3656.1	2396.1
0	198234	3656.1	2296.1
0	198235	3656.1	2196.1
0	198236	3656.1	2096.1
0	198237	3656.1	1996.1
0	198238	3656.1	1896.1
0	198239	3656.1	1796.1
0	198240	3656.1	1696.1
0	198241	3656.1	1596.1
0	198242	3656.1	1496.1
0	198243	3656.1	1396.1
0	198244	3656.1	3296.1
0	198245	3656.1	3196.1
0	198246	3656.1	3096.1
0	198247	3656.1	2996.1
0	198248	3656.1	2896.1
0	198249	3656.1	2796.1
0	198250	3656.1	2696.1
0	198251	3656.1	2596.1
0	198252	3656.1	2496.1
0	198253	3656.1	2396.1
0	198254	3656.1	2296.1
0	198255	3656.1	2196.1
0	198256	3656.1	2096.1
0	198257	3656.1	1996.1
0	198258	3656.1	1896.1
0	198259	3656.1	1796.1
0	198260	3656.1	1696.1
0	198261	3656.1	1596.1
0	198262	3656.1	1496.1
0	198263	3656.1	1396.1
0	198264	3656.1	1296.1
0	198265	3656.1	3286.1
0	198266	3656.1	3186.1
0	198267	3656.1	3086.1
0	198268	3656.1	2986.1
0	198269	3656.1	2886.1
0	198270	3656.1	3286.1
0	198271	3656.1	3186.1
0	198272	3656.1	3086.1
0	198273	3656.1	2986.1
0	198274	3656.1	2886.1
0	198275	3656.1	3286.1
0	198276	3656.1	3186.1
0	198277	3656.1	3086.1
0	198278	3656.1	2986.1
0	198279	3656.1	2886.1
0	198280	3656.1	3286.1
0	198281	3656.1	3186.1
0	198282	3656.1	3086.1
0	198283	3656.1	2986.1
0	198284	3656.1	2886.1
0	198285	3656.1	2786.1
0	198286	3656.1	2686.1
0	198287	3656.1	2586.1
0	198288	3656.1	2486.1
0	198289	3656.1	2386.1
0	198290	3656.1	2286.1
0	198291	3656.1	2186.1
0	198292	3656.1	2086.1
0	198293	3656.1	1986.1
0	198294	3656.1	1886.1
0	198295	3656.1	1786.1
0	198296	3656.1	1686.1
0	198297	3656.1	1586.1
0	198298	3656.1	1486.1
0	198299	3656.1	1386.1
0	198300	3656.1	3286.1
0	198301	3656.1	3186.1
0	198302	3656.1	3086.1
0	198303	3656.1	2986.1
0	198304	3656.1	2886.1
0	198305	3656.1	2786.1
0	198306	3656.1	2686.1
0	198307	3656.1	2586.1
0	198308	3656.1	2486.1
0	198309	3656.1	2386.1
0	198310	3656.1	2286.1
0	198311	3656.1	2186.1
0	198312	3656.1	2086.1
0	198313	3656.1	1986.1
0	198314	3656.1	1886.1
0	198315	3656.1	1786.1
0	198316	3656.1	1686.1
0	198317	3656.1	1586.1
0	198318	3656.1	1486.1
0	198319	3656.1	1386.1
0	198320	3656.1	1286.1
0	198321	3656.1	3276.1
0	198322	3656.1	3176.1
0	198323	3656.1	3076.1
0	198324	3656.1	2976.1
0	198325	3656.1	2876.1
0	198326	3656.1	3276.1
0	198327	3656.1	3176.1
0	198328	3656.1	3076.1
0	198329	3656.1	2976.1
0	198330	3656.1	2876.1
0	198331	3656.1	3276.1
0	198332	3656.1	3176.1
0	198333	3656.1	3076.1
0	198334	3656.1	2976.1
0	198335	3656.1	2876.1
0	198336	3656.1	3276.1
0	198337	3656.1	3176.1
0	198338	3656.1	3076.1
0	198339	3656.1	2976.1
0	198340	3656.1	2876.1
0	198341	3656.1	2776.1
0	198342	3656.1	2676.1
0	198343	3656.1	2576.1
0	198344	3656.1	2476.1
0	198345	3656.1	2376.1
0	198346	3656.1	2276.1
0	198347	3656.1	2176.1
0	198348	3656.1	2076.1
0	198349	3656.1	1976.1
0	198350	3656.1	1876.1
0	198351	3656.1	1776.1
0	198352	3656.1	1676.1
0	198353	3656.1	1576.1
0	198354	3656.1	1476.1
0	198355	3656.1	1376.1
0	198356	3656.1	3276.1
0	198357	3656.1	3176.1
0	198358	3656.1	3076.1
0	198359	3656.1	2976.1
0	198360	3656.1	2876.1
0	198361	3656.1	2776.1
0	198362	3656.1	2676.1
0	198363	3656.1	2576.1
0	198364	3656.1	2476.1
0	198365	3656.1	2376.1
0	198366	3656.1	2276.1
0	198367	3656.1	2176.1
0	198368	3656.1	2076.1
0	198369	3656.1	1976.1
0	198370	3656.1	1876.1
0	198371	3656.1	1776.1
0	198372	3656.1	1676.1
0	198373	3656.1	1576.1
0	198374	3656.1	1476.1
0	198375	3656.1	1376.1
0	198376	3656.1	1276.1
0	198377	3656.1	3266.1
0	198378	3656.1	3166.1
0	198379	3656.1	3066.1
0	198380	3656.1	2966.1
0	198381	3656.1	2866.1
0	198382	3656.1	3266.1
0	198383	3656.1	3166.1
0	198384	3656.1	3066.1
0	198385	3656.1	2966.1
0	198386	3656.1	2866.1
0	198387	3656.1	3266.1
0	198388	3656.1	3166.1
0	198389	3656.1	3066.1
0	198390	3656.1	2966.1
0	198391	3656.1	2866.1
0	198392	3656.1	3266.1
0	198393	3656.1	3166.1
0	198394	3656.1	3066.1
0	198395	3656.1	2966.1
0	198396	3656.1	2866.1
0	198397	3656.1	2766.1
0	198398	3656.1	2666.1
0	198399	3656.1	2566.1
0	198400	3656.1	2466.1
0	198401	3656.1	2366.1
0	198402	3656.1	2266.1
0	198403	3656.1	2166.1
0	198404	3656.1	2066.1
0	198405	3656.1	1966.1
0	198406	3656.1	1866.1
0	198407	3656.1	1766.1
0	198408	3656.1	1666.1
0	198409	3656.1	1566.1
0	198410	3656.1	1466.1
0	198411	3656.1	1366.1
0	198412	3656.1	3266.1
0	198413	3656.1	3166.1
0	198414	3656.1	3066.1
0	198415	3656.1	2966.1
0	198416	3656.1	2866.1
0	198417	3656.1	2766.1
0	198418	3656.1	2666.1
0	198419	3656.1	2566.1
0	198420	3656.1	2466.1
0	198421	3656.1	2366.1
0	198422	3656.1	2266.1
0	198423	3656.1	2166.1
0	198424	3656.1	2066.1
0	198425	3656.1	1966.1
0	198426	3656.1	1866.1
0	198427	3656.1	1766.1
0	198428	3656.1	1666.1
0	198429	3656.1	1566.1
0	198430	3656.1	1466.1
0	198431	3656.1	1366.1
0	198432	3656.1	1266.1
0	198433	3656.1	3256.1
0	198434	3656.1	3156.1
0	198435	3656.1	3056.1
0	198436	3656.1	2956.1
0	198437	3656.1	2856.1
0	198438	3656.1	3256.1
0	198439	3656.1	3156.1
0	198440	3656.1	3056.1
0	198441	3656.1	2956.1
0	198442	3656.1	2856.1
0	198443	3656.1	3256.1
0	198444	3656.1	3156.1
0	198445	3656.1	3056.1
0	198446	3656.1	2956.1
0	198447	3656.1	2856.1
0	198448	3656.1	3256.1
0	198449	3656.1	3156.1
0	198450	3656.1	3056.1
0	198451	3656.1	2956.1
0	198452	3656.1	2856.1
0	198453	3656.1	2756.1
0	198454	3656.1	2656.1
0	198455	3656.1	2556.1
0	198456	3656.1	2456.1
0	198457	3656.1	2356.1
0	198458	3656.1	2256.1
0	198459	3656.1	2156.1
0	198460	3656.1	2056.1
0	198461	3656.1	1956.1
0	198462	3656.1	1856.1
0	198463	3656.1	1756.1
0	198464	3656.1	1656.1
0	198465	3656.1	1556.1
0	198466	3656.1	1456.1
0	198467	3656.1	1356.1
0	198468	3656.1	3256.1
0	198469	3656.1	3156.1
0	198470	3656.1	3056.1
0	198471	3656.1	2956.1
0	198472	3656.1	2856.1
0	198473	3656.1	2756.1
0	198474	3656.1	2656.1
0	198475	3656.1	2556.1
0	198476	3656.1	2456.1
0	198477	3656.1	2356.1
0	198478	3656.1	2256.1
0	198479	3656.1	2156.1
0	198480	3656.1	2056.1
0	198481	3656.1	1956.1
0	198482	3656.1	1856.1
0	198483	3656.1	1756.1
0	198484	3656.1	1656.1
0	198485	3656.1	1556.1
0	198486	3656.1	1456.1
0	198487	3656.1	1356.1
0	198488	3656.1	1256.1
0	198489	3656.1	3656.1
0	198490	3656.1	3646.1
0	198491	3656.1	3636.1
0	198492	3656.1	3626.1
0	198493	3656.1	3616.1
0	198494	3656.1	3606.1
0	198495	3656.1	3596.1
0	198496	3656.1	3586.1
0	198497	3656.1	3576.1
0	198498	3656.1	3566.1
0	198499	3656.1	3556.1
0	198500	3656.1	3546.1
0	198501	3656.1	3536.1
0	198502	3656.1	3526.1
0	198503	3656.1	3516.1
0	198504	3656.1	3506.1
0	198505	3656.1	3496.1
0	198506	3656.1	3486.1
0	198507	3656.1	3476.1
0	198508	3656.1	3466.1
0	198509	3656.1	3456.1
0	198510	3656.1	3446.1
0	198511	3656.1	3436.1
0	198512	3656.1	3426.1
0	198513	3656.1	3416.1
0	198514	3656.1	3406.1
0	198515	3656.1	3396.1
0	198516	3656.1	3386.1
0	198517	3656.1	3376.1
0	198518	3656.1	3366.1
0	198519	3656.1	3356.1
0	198520	3656.1	3656.1
0	198521	3656.1	3646.1
0	198522	3656.1	3636.1
0	198523	3656.1	3626.1
0	198524	3656.1	3616.1
0	198525	3656.1	3606.1
0	198526	3656.1	3596.1
0	198527	3656.1	3586.1
0	198528	3656.1	3576.1
0	198529	3656.1	3566.1
0	198530	3656.1	3556.1
0	198531	3656.1	3546.1
0	198532	3656.1	3536.1
0	198533	3656.1	3526.1
0	198534	3656.1	3516.1
0	198535	3656.1	3506.1
0	198536	3656.1	3496.1
0	198537	3656.1	3486.1
0	198538	3656.1	3476.1
0	198539	3656.1	3466.1
0	198540	3656.1	3456.1
0	198541	3656.1	3446.1
0	198542	3656.1	3436.1
0	198543	3656.1	3426.1
0	198544	3656.1	3416.1
0	198545	3656.1	3406.1
0	198546	3656.1	3396.1
0	198547	3656.1	3386.1
0	198548	3656.1	3376.1
0	198549	3656.1	3366.1
0	198550	3656.1	3356.1
0	198551	3656.1	3656.1
0	198552	3656.1	3646.1
0	198553	3656.1	3636.1
0	198554	3656.1	3626.1
0	198555	3656.1	3616.1
0	198556	3656.1	3606.1
0	198557	3656.1	3596.1
0	198558	3656.1	3586.1
0	198559	3656.1	3576.1
0	198560	3656.1	3566.1
0	198561	3656.1	3556.1
0	198562	3656.1	3546.1
0	198563	3656.1	3536.1
0	198564	3656.1	3526.1
0	198565	3656.1	3516.1
0	198566	3656.1	3506.1
0	198567	3656.1	3496.1
0	198568	3656.1	3486.1
0	198569	3656.1	3476.1
0	198570	3656.1	3466.1
0	198571	3656.1	3456.1
0	198572	3656.1	3446.1
0	198573	3656.1	3436.1
0	198574	3656.1	3426.1
0	198575	3656.1	3416.1
0	198576	3656.1	3406.1
0	198577	3656.1	3396.1
0	198578	3656.1	3386.1
0	198579	3656.1	3376.1
0	198580	3656.1	3366.1
0	198581	3656.1	3356.1
0	198582	3656.1	3656.1
0	198583	3656.1	3646.1
0	198584	3656.1	3636.1
0	198585	3656.1	3626.1
0	198586	3656.1	3616.1
0	198587	3656.1	3606.1
0	198588	3656.1	3596.1
0	198589	3656.1	3586.1
0	198590	3656.1	3576.1
0	198591	3656.1	3566.1
0	198592	3656.1	3556.1
0	198593	3656.1	3546.1
0	198594	3656.1	3536.1
0	198595	3656.1	3526.1
0	198596	3656.1	3516.1
0	198597	3656.1	3506.1
0	198598	3656.1	3496.1
0	198599	3656.1	3486.1
0	198600	3656.1	3476.1
0	198601	3656.1	3466.1
0	198602	3656.1	3456.1
0	198603	3656.1	3446.1
0	198604	3656.1	3436.1
0	198605	3656.1	3426.1
0	198606	3656.1	3416.1
0	198607	3656.1	3406.1
0	198608	3656.1	3396.1
0	198609	3656.1	3386.1
0	198610	3656.1	3376.1
0	198611	3656.1	3366.1
0	198612	3656.1	3356.1
0	198613	3656.1	3656.1
0	198614	3656.1	3646.1
0	198615	3656.1	3636.1
0	198616	3656.1	3626.1
0	198617	3656.1	3616.1
0	198618	3656.1	3606.1
0	198619	3656.1	3596.1
0	198620	3656.1	3586.1
0	198621	3656.1	3576.1
0	198622	3656.1	3566.1
0	198623	3656.1	3556.1
0	198624	3656.1	3546.1
0	198625	3656.1	3536.1
0	198626	3656.1	3526.1
0	198627	3656.1	3516.1
0	198628	3656.1	3506.1
0	198629	3656.1	3496.1
0	198630	3656.1	3486.1
0	198631	3656.1	3476.1
0	198632	3656.1	3466.1
0	198633	3656.1	3456.1
0	198634	3656.1	3446.1
0	198635	3656.1	3436.1
0	198636	3656.1	3426.1
0	198637	3656.1	3416.1
0	198638	3656.1	3406.1
0	198639	3656.1	3396.1
0	198640	3656.1	3386.1
0	198641	3656.1	3376.1
0	198642	3656.1	3366.1
0	198643	3656.1	3356.1
0	198644	3656.1	3346.1
0	198645	3656.1	3246.1
0	198646	3656.1	3146.1
0	198647	3656.1	3046.1
0	198648	3656.1	2946.1
0	198649	3656.1	2846.1
0	198650	3656.1	3346.1
0	198651	3656.1	3246.1
0	198652	3656.1	3146.1
0	198653	3656.1	3046.1
0	198654	3656.1	2946.1
0	198655	3656.1	2846.1
0	198656	3656.1	3346.1
0	198657	3656.1	3246.1
0	198658	3656.1	3146.1
0	198659	3656.1	3046.1
0	198660	3656.1	2946.1
0	198661	3656.1	2846.1
0	198662	3656.1	3346.1
0	198663	3656.1	3246.1
0	198664	3656.1	3146.1
0	198665	3656.1	3046.1
0	198666	3656.1	2946.1
0	198667	3656.1	2846.1
0	198668	3656.1	2746.1
0	198669	3656.1	2646.1
0	198670	3656.1	2546.1
0	198671	3656.1	2446.1
0	198672	3656.1	2346.1
0	198673	3656.1	2246.1
0	198674	3656.1	2146.1
0	198675	3656.1	2046.1
0	198676	3656.1	1946.1
0	198677	3656.1	1846.1
0	198678	3656.1	1746.1
0	198679	3656.1	1646.1
0	198680	3656.1	1546.1
0	198681	3656.1	1446.1
0	198682	3656.1	1346.1
0	198683	3656.1	3346.1
0	198684	3656.1	3246.1
0	198685	3656.1	3146.1
0	198686	3656.1	3046.1
0	198687	3656.1	2946.1
0	198688	3656.1	2846.1
0	198689	3656.1	2746.1
0	198690	3656.1	2646.1
0	198691	3656.1	2546.1
0	198692	3656.1	2446.1
0	198693	3656.1	2346.1
0	198694	3656.1	2246.1
0	198695	3656.1	2146.1
0	198696	3656.1	2046.1
0	198697	3656.1	1946.1
0	198698	3656.1	1846.1
0	198699	3656.1	1746.1
0	198700	3656.1	1646.1
0	198701	3656.1	1546.1
0	198702	3656.1	1446.1
0	198703	3656.1	1346.1
0	198704	3656.1	1246.1
0	198705	3656.1	3336.1
0	198706	3656.1	3236.1
0	198707	3656.1	3136.1
0	198708	3656.1	3036.1
0	198709	3656.1	2936.1
0	198710	3656.1	2836.1
0	198711	3656.1	3336.1
0	198712	3656.1	3236.1
0	198713	3656.1	3136.1
0	198714	3656.1	3036.1
0	198715	3656.1	2936.1
0	198716	3656.1	2836.1
0	198717	3656.1	3336.1
0	198718	3656.1	3236.1
0	198719	3656.1	3136.1
0	198720	3656.1	3036.1
0	198721	3656.1	2936.1
0	198722	3656.1	2836.1
0	198723	3656.1	3336.1
0	198724	3656.1	3236.1
0	198725	3656.1	3136.1
0	198726	3656.1	3036.1
0	198727	3656.1	2936.1
0	198728	3656.1	2836.1
0	198729	3656.1	2736.1
0	198730	3656.1	2636.1
0	198731	3656.1	2536.1
0	198732	3656.1	2436.1
0	198733	3656.1	2336.1
0	198734	3656.1	2236.1
0	198735	3656.1	2136.1
0	198736	3656.1	2036.1
0	198737	3656.1	1936.1
0	198738	3656.1	1836.1
0	198739	3656.1	1736.1
0	198740	3656.1	1636.1
0	198741	3656.1	1536.1
0	198742	3656.1	1436.1
0	198743	3656.1	1336.1
0	198744	3656.1	3336.1
0	198745	3656.1	3236.1
0	198746	3656.1	3136.1
0	198747	3656.1	3036.1
0	198748	3656.1	2936.1
0	198749	3656.1	2836.1
0	198750	3656.1	2736.1
0	198751	3656.1	2636.1
0	198752	3656.1	2536.1
0	198753	3656.1	2436.1
0	198754	3656.1	2336.1
0	198755	3656.1	2236.1
0	198756	3656.1	2136.1
0	198757	3656.1	2036.1
0	198758	3656.1	1936.1
0	198759	3656.1	1836.1
0	198760	3656.1	1736.1
0	198761	3656.1	1636.1
0	198762	3656.1	1536.1
0	198763	3656.1	1436.1
0	198764	3656.1	1336.1
0	198765	3656.1	1236.1
0	198766	3656.1	3326.1
0	198767	3656.1	3226.1
0	198768	3656.1	3126.1
0	198769	3656.1	3026.1
0	198770	3656.1	2926.1
0	198771	3656.1	2826.1
0	198772	3656.1	3326.1
0	198773	3656.1	3226.1
0	198774	3656.1	3126.1
0	198775	3656.1	3026.1
0	198776	3656.1	2926.1
0	198777	3656.1	2826.1
0	198778	3656.1	3326.1
0	198779	3656.1	3226.1
0	198780	3656.1	3126.1
0	198781	3656.1	3026.1
0	198782	3656.1	2926.1
0	198783	3656.1	2826.1
0	198784	3656.1	3326.1
0	198785	3656.1	3226.1
0	198786	3656.1	3126.1
0	198787	3656.1	3026.1
0	198788	3656.1	2926.1
0	198789	3656.1	2826.1
0	198790	3656.1	2726.1
0	198791	3656.1	2626.1
0	198792	3656.1	2526.1
0	198793	3656.1	2426.1
0	198794	3656.1	2326.1
0	198795	3656.1	2226.1
0	198796	3656.1	2126.1
0	198797	3656.1	2026.1
0	198798	3656.1	1926.1
0	198799	3656.1	1826.1
0	198800	3656.1	1726.1
0	198801	3656.1	1626.1
0	198802	3656.1	1526.1
0	198803	3656.1	1426.1
0	198804	3656.1	1326.1
0	198805	3656.1	3326.1
0	198806	3656.1	3226.1
0	198807	3656.1	3126.1
0	198808	3656.1	3026.1
0	198809	3656.1	2926.1
0	198810	3656.1	2826.1
0	198811	3656.1	2726.1
0	198812	3656.1	2626.1
0	198813	3656.1	2526.1
0	198814	3656.1	2426.1
0	198815	3656.1	2326.1
0	198816	3656.1	2226.1
0	198817	3656.1	2126.1
0	198818	3656.1	2026.1
0	198819	3656.1	1926.1
0	198820	3656.1	1826.1
0	198821	3656.1	1726.1
0	198822	3656.1	1626.1
0	198823	3656.1	1526.1
0	198824	3656.1	1426.1
0	198825	3656.1	1326.1
0	198826	3656.1	1226.1
0	198827	3656.1	3316.1
0	198828	3656.1	3216.1
0	198829	3656.1	3116.1
0	198830	3656.1	3016.1
0	198831	3656.1	2916.1
0	198832	3656.1	2816.1
0	198833	3656.1	3316.1
0	198834	3656.1	3216.1
0	198835	3656.1	3116.1
0	198836	3656.1	3016.1
0	198837	3656.1	2916.1
0	198838	3656.1	2816.1
0	198839	3656.1	3316.1
0	198840	3656.1	3216.1
0	198841	3656.1	3116.1
0	198842	3656.1	3016.1
0	198843	3656.1	2916.1
0	198844	3656.1	2816.1
0	198845	3656.1	2716.1
0	198846	3656.1	3316.1
0	198847	3656.1	3216.1
0	198848	3656.1	3116.1
0	198849	3656.1	3016.1
0	198850	3656.1	2916.1
0	198851	3656.1	2816.1
0	198852	3656.1	2716.1
0	198853	3656.1	2616.1
0	198854	3656.1	2516.1
0	198855	3656.1	2416.1
0	198856	3656.1	2316.1
0	198857	3656.1	2216.1
0	198858	3656.1	2116.1
0	198859	3656.1	2016.1
0	198860	3656.1	1916.1
0	198861	3656.1	1816.1
0	198862	3656.1	1716.1
0	198863	3656.1	1616.1
0	198864	3656.1	1516.1
0	198865	3656.1	1416.1
0	198866	3656.1	1316.1
0	198867	3656.1	1216.1
0	198868	3656.1	3306.1
0	198869	3656.1	3206.1
0	198870	3656.1	3106.1
0	198871	3656.1	3006.1
0	198872	3656.1	2906.1
0	198873	3656.1	2806.1
0	198874	3656.1	3306.1
0	198875	3656.1	3206.1
0	198876	3656.1	3106.1
0	198877	3656.1	3006.1
0	198878	3656.1	2906.1
0	198879	3656.1	2806.1
0	198880	3656.1	3306.1
0	198881	3656.1	3206.1
0	198882	3656.1	3106.1
0	198883	3656.1	3006.1
0	198884	3656.1	2906.1
0	198885	3656.1	2806.1
0	198886	3656.1	2706.1
0	198887	3656.1	3306.1
0	198888	3656.1	3206.1
0	198889	3656.1	3106.1
0	198890	3656.1	3006.1
0	198891	3656.1	2906.1
0	198892	3656.1	2806.1
0	198893	3656.1	2706.1
0	198894	3656.1	2606.1
0	198895	3656.1	2506.1
0	198896	3656.1	2406.1
0	198897	3656.1	2306.1
0	198898	3656.1	2206.1
0	198899	3656.1	2106.1
0	198900	3656.1	2006.1
0	198901	3656.1	1906.1
0	198902	3656.1	1806.1
0	198903	3656.1	1706.1
0	198904	3656.1	1606.1
0	198905	3656.1	1506.1
0	198906	3656.1	1406.1
0	198907	3656.1	1306.1
0	198908	3656.1	1206.1
0	198909	3656.1	3296.1
0	198910	3656.1	3196.1
0	198911	3656.1	3096.1
0	198912	3656.1	2996.1
0	198913	3656.1	2896.1
0	198914	3656.1	2796.1
0	198915	3656.1	3296.1
0	198916	3656.1	3196.1
0	198917	3656.1	3096.1
0	198918	3656.1	2996.1
0	198919	3656.1	2896.1
0	198920	3656.1	2796.1
0	198921	3656.1	3296.1
0	198922	3656.1	3196.1
0	198923	3656.1	3096.1
0	198924	3656.1	2996.1
0	198925	3656.1	2896.1
0	198926	3656.1	2796.1
0	198927	3656.1	2696.1
0	198928	3656.1	3296.1
0	198929	3656.1	3196.1
0	198930	3656.1	3096.1
0	198931	3656.1	2996.1
0	198932	3656.1	2896.1
0	198933	3656.1	2796.1
0	198934	3656.1	2696.1
0	198935	3656.1	2596.1
0	198936	3656.1	2496.1
0	198937	3656.1	2396.1
0	198938	3656.1	2296.1
0	198939	3656.1	2196.1
0	198940	3656.1	2096.1
0	198941	3656.1	1996.1
0	198942	3656.1	1896.1
0	198943	3656.1	1796.1
0	198944	3656.1	1696.1
0	198945	3656.1	1596.1
0	198946	3656.1	1496.1
0	198947	3656.1	1396.1
0	198948	3656.1	1296.1
0	198949	3656.1	1196.1
0	198950	3656.1	3286.1
0	198951	3656.1	3186.1
0	198952	3656.1	3086.1
0	198953	3656.1	2986.1
0	198954	3656.1	2886.1
0	198955	3656.1	2786.1
0	198956	3656.1	3286.1
0	198957	3656.1	3186.1
0	198958	3656.1	3086.1
0	198959	3656.1	2986.1
0	198960	3656.1	2886.1
0	198961	3656.1	2786.1
0	198962	3656.1	3286.1
0	198963	3656.1	3186.1
0	198964	3656.1	3086.1
0	198965	3656.1	2986.1
0	198966	3656.1	2886.1
0	198967	3656.1	2786.1
0	198968	3656.1	2686.1
0	198969	3656.1	3286.1
0	198970	3656.1	3186.1
0	198971	3656.1	3086.1
0	198972	3656.1	2986.1
0	198973	3656.1	2886.1
0	198974	3656.1	2786.1
0	198975	3656.1	2686.1
0	198976	3656.1	2586.1
0	198977	3656.1	2486.1
0	198978	3656.1	2386.1
0	198979	3656.1	2286.1
0	198980	3656.1	2186.1
0	198981	3656.1	2086.1
0	198982	3656.1	1986.1
0	198983	3656.1	1886.1
0	198984	3656.1	1786.1
0	198985	3656.1	1686.1
0	198986	3656.1	1586.1
0	198987	3656.1	1486.1
0	198988	3656.1	1386.1
0	198989	3656.1	1286.1
0	198990	3656.1	1186.1
0	198991	3656.1	3276.1
0	198992	3656.1	3176.1
0	198993	3656.1	3076.1
0	198994	3656.1	2976.1
0	198995	3656.1	2876.1
0	198996	3656.1	2776.1
0	198997	3656.1	3276.1
0	198998	3656.1	3176.1
0	198999	3656.1	3076.1
0	199000	3656.1	2976.1
0	199001	3656.1	2876.1
0	199002	3656.1	2776.1
0	199003	3656.1	3276.1
0	199004	3656.1	3176.1
0	199005	3656.1	3076.1
0	199006	3656.1	2976.1
0	199007	3656.1	2876.1
0	199008	3656.1	2776.1
0	199009	3656.1	2676.1
0	199010	3656.1	3276.1
0	199011	3656.1	3176.1
0	199012	3656.1	3076.1
0	199013	3656.1	2976.1
0	199014	3656.1	2876.1
0	199015	3656.1	2776.1
0	199016	3656.1	2676.1
0	199017	3656.1	2576.1
0	199018	3656.1	2476.1
0	199019	3656.1	2376.1
0	199020	3656.1	2276.1
0	199021	3656.1	2176.1
0	199022	3656.1	2076.1
0	199023	3656.1	1976.1
0	199024	3656.1	1876.1
0	199025	3656.1	1776.1
0	199026	3656.1	1676.1
0	199027	3656.1	1576.1
0	199028	3656.1	1476.1
0	199029	3656.1	1376.1
0	199030	3656.1	1276.1
0	199031	3656.1	1176.1
0	199032	3656.1	3266.1
0	199033	3656.1	3166.1
0	199034	3656.1	3066.1
0	199035	3656.1	2966.1
0	199036	3656.1	2866.1
0	199037	3656.1	2766.1
0	199038	3656.1	3266.1
0	199039	3656.1	3166.1
0	199040	3656.1	3066.1
0	199041	3656.1	2966.1
0	199042	3656.1	2866.1
0	199043	3656.1	2766.1
0	199044	3656.1	3266.1
0	199045	3656.1	3166.1
0	199046	3656.1	3066.1
0	199047	3656.1	2966.1
0	199048	3656.1	2866.1
0	199049	3656.1	2766.1
0	199050	3656.1	2666.1
0	199051	3656.1	3266.1
0	199052	3656.1	3166.1
0	199053	3656.1	3066.1
0	199054	3656.1	2966.1
0	199055	3656.1	2866.1
0	199056	3656.1	2766.1
0	199057	3656.1	2666.1
0	199058	3656.1	2566.1
0	199059	3656.1	2466.1
0	199060	3656.1	2366.1
0	199061	3656.1	2266.1
0	199062	3656.1	2166.1
0	199063	3656.1	2066.1
0	199064	3656.1	1966.1
0	199065	3656.1	1866.1
0	199066	3656.1	1766.1
0	199067	3656.1	1666.1
0	199068	3656.1	1566.1
0	199069	3656.1	1466.1
0	199070	3656.1	1366.1
0	199071	3656.1	1266.1
0	199072	3656.1	1166.1
0	199073	3656.1	3256.1
0	199074	3656.1	3156.1
0	199075	3656.1	3056.1
0	199076	3656.1	2956.1
0	199077	3656.1	2856.1
0	199078	3656.1	2756.1
0	199079	3656.1	3256.1
0	199080	3656.1	3156.1
0	199081	3656.1	3056.1
0	199082	3656.1	2956.1
0	199083	3656.1	2856.1
0	199084	3656.1	2756.1
0	199085	3656.1	3256.1
0	199086	3656.1	3156.1
0	199087	3656.1	3056.1
0	199088	3656.1	2956.1
0	199089	3656.1	2856.1
0	199090	3656.1	2756.1
0	199091	3656.1	2656.1
0	199092	3656.1	3256.1
0	199093	3656.1	3156.1
0	199094	3656.1	3056.1
0	199095	3656.1	2956.1
0	199096	3656.1	2856.1
0	199097	3656.1	2756.1
0	199098	3656.1	2656.1
0	199099	3656.1	2556.1
0	199100	3656.1	2456.1
0	199101	3656.1	2356.1
0	199102	3656.1	2256.1
0	199103	3656.1	2156.1
0	199104	3656.1	2056.1
0	199105	3656.1	1956.1
0	199106	3656.1	1856.1
0	199107	3656.1	1756.1
0	199108	3656.1	1656.1
0	199109	3656.1	1556.1
0	199110	3656.1	1456.1
0	199111	3656.1	1356.1
0	199112	3656.1	1256.1
0	199113	3656.1	1156.1
0	199114	3656.1	3656.1
0	199115	3656.1	3646.1
0	199116	3656.1	3636.1
0	199117	3656.1	3626.1
0	199118	3656.1	3616.1
0	199119	3656.1	3606.1
0	199120	3656.1	3596.1
0	199121	3656.1	3586.1
0	199122	3656.1	3576.1
0	199123	3656.1	3566.1
0	199124	3656.1	3556.1
0	199125	3656.1	3546.1
0	199126	3656.1	3536.1
0	199127	3656.1	3526.1
0	199128	3656.1	3516.1
0	199129	3656.1	3506.1
0	199130	3656.1	3496.1
0	199131	3656.1	3486.1
0	199132	3656.1	3476.1
0	199133	3656.1	3466.1
0	199134	3656.1	3456.1
0	199135	3656.1	3446.1
0	199136	3656.1	3436.1
0	199137	3656.1	3426.1
0	199138	3656.1	3416.1
0	199139	3656.1	3406.1
0	199140	3656.1	3396.1
0	199141	3656.1	3386.1
0	199142	3656.1	3376.1
0	199143	3656.1	3366.1
0	199144	3656.1	3356.1
0	199145	3656.1	3656.1
0	199146	3656.1	3646.1
0	199147	3656.1	3636.1
0	199148	3656.1	3626.1
0	199149	3656.1	3616.1
0	199150	3656.1	3606.1
0	199151	3656.1	3596.1
0	199152	3656.1	3586.1
0	199153	3656.1	3576.1
0	199154	3656.1	3566.1
0	199155	3656.1	3556.1
0	199156	3656.1	3546.1
0	199157	3656.1	3536.1
0	199158	3656.1	3526.1
0	199159	3656.1	3516.1
0	199160	3656.1	3506.1
0	199161	3656.1	3496.1
0	199162	3656.1	3486.1
0	199163	3656.1	3476.1
0	199164	3656.1	3466.1
0	199165	3656.1	3456.1
0	199166	3656.1	3446.1
0	199167	3656.1	3436.1
0	199168	3656.1	3426.1
0	199169	3656.1	3416.1
0	199170	3656.1	3406.1
0	199171	3656.1	3396.1
0	199172	3656.1	3386.1
0	199173	3656.1	3376.1
0	199174	3656.1	3366.1
0	199175	3656.1	3356.1
0	199176	3656.1	3656.1
0	199177	3656.1	3646.1
0	199178	3656.1	3636.1
0	199179	3656.1	3626.1
0	199180	3656.1	3616.1
0	199181	3656.1	3606.1
0	199182	3656.1	3596.1
0	199183	3656.1	3586.1
0	199184	3656.1	3576.1
0	199185	3656.1	3566.1
0	199186	3656.1	3556.1
0	199187	3656.1	3546.1
0	199188	3656.1	3536.1
0	199189	3656.1	3526.1
0	199190	3656.1	3516.1
0	199191	3656.1	3506.1
0	199192	3656.1	3496.1
0	199193	3656.1	3486.1
0	199194	3656.1	3476.1
0	199195	3656.1	3466.1
0	199196	3656.1	3456.1
0	199197	3656.1	3446.1
0	199198	3656.1	3436.1
0	199199	3656.1	3426.1
0	199200	3656.1	3416.1
0	199201	3656.1	3406.1
0	199202	3656.1	3396.1
0	199203	3656.1	3386.1
0	199204	3656.1	3376.1
0	199205	3656.1	3366.1
0	199206	3656.1	3356.1
0	199207	3656.1	3656.1
0	199208	3656.1	3646.1
0	199209	3656.1	3636.1
0	199210	3656.1	3626.1
0	199211	3656.1	3616.1
0	199212	3656.1	3606.1
0	199213	3656.1	3596.1
0	199214	3656.1	3586.1
0	199215	3656.1	3576.1
0	199216	3656.1	3566.1
0	199217	3656.1	3556.1
0	199218	3656.1	3546.1
0	199219	3656.1	3536.1
0	199220	3656.1	3526.1
0	199221	3656.1	3516.1
0	199222	3656.1	3506.1
0	199223	3656.1	3496.1
0	199224	3656.1	3486.1
0	199225	3656.1	3476.1
0	199226	3656.1	3466.1
0	199227	3656.1	3456.1
0	199228	3656.1	3446.1
0	199229	3656.1	3436.1
0	199230	3656.1	3426.1
0	199231	3656.1	3416.1
0	199232	3656.1	3406.1
0	199233	3656.1	3396.1
0	199234	3656.1	3386.1
0	199235	3656.1	3376.1
0	199236	3656.1	3366.1
0	199237	3656.1	3356.1
0	199238	3656.1	3346.1
0	199239	3656.1	3246.1
0	199240	3656.1	3146.1
0	199241	3656.1	3046.1
0	199242	3656.1	2946.1
0	199243	3656.1	2846.1
0	199244	3656.1	2746.1
0	199245	3656.1	3346.1
0	199246	3656.1	3246.1
0	199247	3656.1	3146.1
0	199248	3656.1	3046.1
0	199249	3656.1	2946.1
0	199250	3656.1	2846.1
0	199251	3656.1	2746.1
0	199252	3656.1	3346.1
0	199253	3656.1	3246.1
0	199254	3656.1	3146.1
0	199255	3656.1	3046.1
0	199256	3656.1	2946.1
0	199257	3656.1	2846.1
0	199258	3656.1	2746.1
0	199259	3656.1	2646.1
0	199260	3656.1	3346.1
0	199261	3656.1	3246.1
0	199262	3656.1	3146.1
0	199263	3656.1	3046.1
0	199264	3656.1	2946.1
0	199265	3656.1	2846.1
0	199266	3656.1	2746.1
0	199267	3656.1	2646.1
0	199268	3656.1	2546.1
0	199269	3656.1	2446.1
0	199270	3656.1	2346.1
0	199271	3656.1	2246.1
0	199272	3656.1	2146.1
0	199273	3656.1	2046.1
0	199274	3656.1	1946.1
0	199275	3656.1	1846.1
0	199276	3656.1	1746.1
0	199277	3656.1	1646.1
0	199278	3656.1	1546.1
0	199279	3656.1	1446.1
0	199280	3656.1	1346.1
0	199281	3656.1	1246.1
0	199282	3656.1	1146.1
0	199283	3656.1	3336.1
0	199284	3656.1	3236.1
0	199285	3656.1	3136.1
0	199286	3656.1	3036.1
0	199287	3656.1	2936.1
0	199288	3656.1	2836.1
0	199289	3656.1	2736.1
0	199290	3656.1	3336.1
0	199291	3656.1	3236.1
0	199292	3656.1	3136.1
0	199293	3656.1	3036.1
0	199294	3656.1	2936.1
0	199295	3656.1	2836.1
0	199296	3656.1	2736.1
0	199297	3656.1	3336.1
0	199298	3656.1	3236.1
0	199299	3656.1	3136.1
0	199300	3656.1	3036.1
0	199301	3656.1	2936.1
0	199302	3656.1	2836.1
0	199303	3656.1	2736.1
0	199304	3656.1	2636.1
0	199305	3656.1	3336.1
0	199306	3656.1	3236.1
0	199307	3656.1	3136.1
0	199308	3656.1	3036.1
0	199309	3656.1	2936.1
0	199310	3656.1	2836.1
0	199311	3656.1	2736.1
0	199312	3656.1	2636.1
0	199313	3656.1	2536.1
0	199314	3656.1	2436.1
0	199315	3656.1	2336.1
0	199316	3656.1	2236.1
0	199317	3656.1	2136.1
0	199318	3656.1	2036.1
0	199319	3656.1	1936.1
0	199320	3656.1	1836.1
0	199321	3656.1	1736.1
0	199322	3656.1	1636.1
0	199323	3656.1	1536.1
0	199324	3656.1	1436.1
0	199325	3656.1	1336.1
0	199326	3656.1	1236.1
0	199327	3656.1	1136.1
0	199328	3656.1	3326.1
0	199329	3656.1	3226.1
0	199330	3656.1	3126.1
0	199331	3656.1	3026.1
0	199332	3656.1	2926.1
0	199333	3656.1	2826.1
0	199334	3656.1	2726.1
0	199335	3656.1	3326.1
0	199336	3656.1	3226.1
0	199337	3656.1	3126.1
0	199338	3656.1	3026.1
0	199339	3656.1	2926.1
0	199340	3656.1	2826.1
0	199341	3656.1	2726.1
0	199342	3656.1	3326.1
0	199343	3656.1	3226.1
0	199344	3656.1	3126.1
0	199345	3656.1	3026.1
0	199346	3656.1	2926.1
0	199347	3656.1	2826.1
0	199348	3656.1	2726.1
0	199349	3656.1	2626.1
0	199350	3656.1	3326.1
0	199351	3656.1	3226.1
0	199352	3656.1	3126.1
0	199353	3656.1	3026.1
0	199354	3656.1	2926.1
0	199355	3656.1	2826.1
0	199356	3656.1	2726.1
0	199357	3656.1	2626.1
0	199358	3656.1	2526.1
0	199359	3656.1	2426.1
0	199360	3656.1	2326.1
0	199361	3656.1	2226.1
0	199362	3656.1	2126.1
0	199363	3656.1	2026.1
0	199364	3656.1	1926.1
0	199365	3656.1	1826.1
0	199366	3656.1	1726.1
0	199367	3656.1	1626.1
0	199368	3656.1	1526.1
0	199369	3656.1	1426.1
0	199370	3656.1	1326.1
0	199371	3656.1	1226.1
0	199372	3656.1	1126.1
0	199373	3656.1	3316.1
0	199374	3656.1	3216.1
0	199375	3656.1	3116.1
0	199376	3656.1	3016.1
0	199377	3656.1	2916.1
0	199378	3656.1	2816.1
0	199379	3656.1	2716.1
0	199380	3656.1	3316.1
0	199381	3656.1	3216.1
0	199382	3656.1	3116.1
0	199383	3656.1	3016.1
0	199384	3656.1	2916.1
0	199385	3656.1	2816.1
0	199386	3656.1	2716.1
0	199387	3656.1	3316.1
0	199388	3656.1	3216.1
0	199389	3656.1	3116.1
0	199390	3656.1	3016.1
0	199391	3656.1	2916.1
0	199392	3656.1	2816.1
0	199393	3656.1	2716.1
0	199394	3656.1	2616.1
0	199395	3656.1	3316.1
0	199396	3656.1	3216.1
0	199397	3656.1	3116.1
0	199398	3656.1	3016.1
0	199399	3656.1	2916.1
0	199400	3656.1	2816.1
0	199401	3656.1	2716.1
0	199402	3656.1	2616.1
0	199403	3656.1	2516.1
0	199404	3656.1	2416.1
0	199405	3656.1	2316.1
0	199406	3656.1	2216.1
0	199407	3656.1	2116.1
0	199408	3656.1	2016.1
0	199409	3656.1	1916.1
0	199410	3656.1	1816.1
0	199411	3656.1	1716.1
0	199412	3656.1	1616.1
0	199413	3656.1	1516.1
0	199414	3656.1	1416.1
0	199415	3656.1	1316.1
0	199416	3656.1	1216.1
0	199417	3656.1	1116.1
0	199418	3656.1	3306.1
0	199419	3656.1	3206.1
0	199420	3656.1	3106.1
0	199421	3656.1	3006.1
0	199422	3656.1	2906.1
0	199423	3656.1	2806.1
0	199424	3656.1	2706.1
0	199425	3656.1	3306.1
0	199426	3656.1	3206.1
0	199427	3656.1	3106.1
0	199428	3656.1	3006.1
0	199429	3656.1	2906.1
0	199430	3656.1	2806.1
0	199431	3656.1	2706.1
0	199432	3656.1	3306.1
0	199433	3656.1	3206.1
0	199434	3656.1	3106.1
0	199435	3656.1	3006.1
0	199436	3656.1	2906.1
0	199437	3656.1	2806.1
0	199438	3656.1	2706.1
0	199439	3656.1	2606.1
0	199440	3656.1	3306.1
0	199441	3656.1	3206.1
0	199442	3656.1	3106.1
0	199443	3656.1	3006.1
0	199444	3656.1	2906.1
0	199445	3656.1	2806.1
0	199446	3656.1	2706.1
0	199447	3656.1	2606.1
0	199448	3656.1	2506.1
0	199449	3656.1	2406.1
0	199450	3656.1	2306.1
0	199451	3656.1	2206.1
0	199452	3656.1	2106.1
0	199453	3656.1	2006.1
0	199454	3656.1	1906.1
0	199455	3656.1	1806.1
0	199456	3656.1	1706.1
0	199457	3656.1	1606.1
0	199458	3656.1	1506.1
0	199459	3656.1	1406.1
0	199460	3656.1	1306.1
0	199461	3656.1	1206.1
0	199462	3656.1	1106.1
0	199463	3656.1	3296.1
0	199464	3656.1	3196.1
0	199465	3656.1	3096.1
0	199466	3656.1	2996.1
0	199467	3656.1	2896.1
0	199468	3656.1	2796.1
0	199469	3656.1	2696.1
0	199470	3656.1	3296.1
0	199471	3656.1	3196.1
0	199472	3656.1	3096.1
0	199473	3656.1	2996.1
0	199474	3656.1	2896.1
0	199475	3656.1	2796.1
0	199476	3656.1	2696.1
0	199477	3656.1	3296.1
0	199478	3656.1	3196.1
0	199479	3656.1	3096.1
0	199480	3656.1	2996.1
0	199481	3656.1	2896.1
0	199482	3656.1	2796.1
0	199483	3656.1	2696.1
0	199484	3656.1	2596.1
0	199485	3656.1	3296.1
0	199486	3656.1	3196.1
0	199487	3656.1	3096.1
0	199488	3656.1	2996.1
0	199489	3656.1	2896.1
0	199490	3656.1	2796.1
0	199491	3656.1	2696.1
0	199492	3656.1	2596.1
0	199493	3656.1	2496.1
0	199494	3656.1	2396.1
0	199495	3656.1	2296.1
0	199496	3656.1	2196.1
0	199497	3656.1	2096.1
0	199498	3656.1	1996.1
0	199499	3656.1	1896.1
0	199500	3656.1	1796.1
0	199501	3656.1	1696.1
0	199502	3656.1	1596.1
0	199503	3656.1	1496.1
0	199504	3656.1	1396.1
0	199505	3656.1	1296.1
0	199506	3656.1	1196.1
0	199507	3656.1	1096.1
0	199508	3656.1	3286.1
0	199509	3656.1	3186.1
0	199510	3656.1	3086.1
0	199511	3656.1	2986.1
0	199512	3656.1	2886.1
0	199513	3656.1	2786.1
0	199514	3656.1	2686.1
0	199515	3656.1	3286.1
0	199516	3656.1	3186.1
0	199517	3656.1	3086.1
0	199518	3656.1	2986.1
0	199519	3656.1	2886.1
0	199520	3656.1	2786.1
0	199521	3656.1	2686.1
0	199522	3656.1	3286.1
0	199523	3656.1	3186.1
0	199524	3656.1	3086.1
0	199525	3656.1	2986.1
0	199526	3656.1	2886.1
0	199527	3656.1	2786.1
0	199528	3656.1	2686.1
0	199529	3656.1	2586.1
0	199530	3656.1	3286.1
0	199531	3656.1	3186.1
0	199532	3656.1	3086.1
0	199533	3656.1	2986.1
0	199534	3656.1	2886.1
0	199535	3656.1	2786.1
0	199536	3656.1	2686.1
0	199537	3656.1	2586.1
0	199538	3656.1	2486.1
0	199539	3656.1	2386.1
0	199540	3656.1	2286.1
0	199541	3656.1	2186.1
0	199542	3656.1	2086.1
0	199543	3656.1	1986.1
0	199544	3656.1	1886.1
0	199545	3656.1	1786.1
0	199546	3656.1	1686.1
0	199547	3656.1	1586.1
0	199548	3656.1	1486.1
0	199549	3656.1	1386.1
0	199550	3656.1	1286.1
0	199551	3656.1	1186.1
0	199552	3656.1	1086.1
0	199553	3656.1	3276.1
0	199554	3656.1	3176.1
0	199555	3656.1	3076.1
0	199556	3656.1	2976.1
0	199557	3656.1	2876.1
0	199558	3656.1	2776.1
0	199559	3656.1	2676.1
0	199560	3656.1	3276.1
0	199561	3656.1	3176.1
0	199562	3656.1	3076.1
0	199563	3656.1	2976.1
0	199564	3656.1	2876.1
0	199565	3656.1	2776.1
0	199566	3656.1	2676.1
0	199567	3656.1	3276.1
0	199568	3656.1	3176.1
0	199569	3656.1	3076.1
0	199570	3656.1	2976.1
0	199571	3656.1	2876.1
0	199572	3656.1	2776.1
0	199573	3656.1	2676.1
0	199574	3656.1	2576.1
0	199575	3656.1	3276.1
0	199576	3656.1	3176.1
0	199577	3656.1	3076.1
0	199578	3656.1	2976.1
0	199579	3656.1	2876.1
0	199580	3656.1	2776.1
0	199581	3656.1	2676.1
0	199582	3656.1	2576.1
0	199583	3656.1	2476.1
0	199584	3656.1	2376.1
0	199585	3656.1	2276.1
0	199586	3656.1	2176.1
0	199587	3656.1	2076.1
0	199588	3656.1	1976.1
0	199589	3656.1	1876.1
0	199590	3656.1	1776.1
0	199591	3656.1	1676.1
0	199592	3656.1	1576.1
0	199593	3656.1	1476.1
0	199594	3656.1	1376.1
0	199595	3656.1	1276.1
0	199596	3656.1	1176.1
0	199597	3656.1	1076.1
0	199598	3656.1	3266.1
0	199599	3656.1	3166.1
0	199600	3656.1	3066.1
0	199601	3656.1	2966.1
0	199602	3656.1	2866.1
0	199603	3656.1	2766.1
0	199604	3656.1	2666.1
0	199605	3656.1	3266.1
0	199606	3656.1	3166.1
0	199607	3656.1	3066.1
0	199608	3656.1	2966.1
0	199609	3656.1	2866.1
0	199610	3656.1	2766.1
0	199611	3656.1	2666.1
0	199612	3656.1	3266.1
0	199613	3656.1	3166.1
0	199614	3656.1	3066.1
0	199615	3656.1	2966.1
0	199616	3656.1	2866.1
0	199617	3656.1	2766.1
0	199618	3656.1	2666.1
0	199619	3656.1	2566.1
0	199620	3656.1	3266.1
0	199621	3656.1	3166.1
0	199622	3656.1	3066.1
0	199623	3656.1	2966.1
0	199624	3656.1	2866.1
0	199625	3656.1	2766.1
0	199626	3656.1	2666.1
0	199627	3656.1	2566.1
0	199628	3656.1	2466.1
0	199629	3656.1	2366.1
0	199630	3656.1	2266.1
0	199631	3656.1	2166.1
0	199632	3656.1	2066.1
0	199633	3656.1	1966.1
0	199634	3656.1	1866.1
0	199635	3656.1	1766.1
0	199636	3656.1	1666.1
0	199637	3656.1	1566.1
0	199638	3656.1	1466.1
0	199639	3656.1	1366.1
0	199640	3656.1	1266.1
0	199641	3656.1	1166.1
0	199642	3656.1	1066.1
0	199643	3656.1	3256.1
0	199644	3656.1	3156.1
0	199645	3656.1	3056.1
0	199646	3656.1	2956.1
0	199647	3656.1	2856.1
0	199648	3656.1	2756.1
0	199649	3656.1	2656.1
0	199650	3656.1	3256.1
0	199651	3656.1	3156.1
0	199652	3656.1	3056.1
0	199653	3656.1	2956.1
0	199654	3656.1	2856.1
0	199655	3656.1	2756.1
0	199656	3656.1	2656.1
0	199657	3656.1	3256.1
0	199658	3656.1	3156.1
0	199659	3656.1	3056.1
0	199660	3656.1	2956.1
0	199661	3656.1	2856.1
0	199662	3656.1	2756.1
0	199663	3656.1	2656.1
0	199664	3656.1	2556.1
0	199665	3656.1	3256.1
0	199666	3656.1	3156.1
0	199667	3656.1	3056.1
0	199668	3656.1	2956.1
0	199669	3656.1	2856.1
0	199670	3656.1	2756.1
0	199671	3656.1	2656.1
0	199672	3656.1	2556.1
0	199673	3656.1	2456.1
0	199674	3656.1	2356.1
0	199675	3656.1	2256.1
0	199676	3656.1	2156.1
0	199677	3656.1	2056.1
0	199678	3656.1	1956.1
0	199679	3656.1	1856.1
0	199680	3656.1	1756.1
0	199681	3656.1	1656.1
0	199682	3656.1	1556.1
0	199683	3656.1	1456.1
0	199684	3656.1	1356.1
0	199685	3656.1	1256.1
0	199686	3656.1	1156.1
0	199687	3656.1	1056.1
0	199688	3656.1	3656.1
0	199689	3656.1	3646.1
0	199690	3656.1	3636.1
0	199691	3656.1	3626.1
0	199692	3656.1	3616.1
0	199693	3656.1	3606.1
0	199694	3656.1	3596.1
0	199695	3656.1	3586.1
0	199696	3656.1	3576.1
0	199697	3656.1	3566.1
0	199698	3656.1	3556.1
0	199699	3656.1	3546.1
0	199700	3656.1	3536.1
0	199701	3656.1	3526.1
0	199702	3656.1	3516.1
0	199703	3656.1	3506.1
0	199704	3656.1	3496.1
0	199705	3656.1	3486.1
0	199706	3656.1	3476.1
0	199707	3656.1	3466.1
0	199708	3656.1	3456.1
0	199709	3656.1	3446.1
0	199710	3656.1	3436.1
0	199711	3656.1	3426.1
0	199712	3656.1	3416.1
0	199713	3656.1	3406.1
0	199714	3656.1	3396.1
0	199715	3656.1	3386.1
0	199716	3656.1	3376.1
0	199717	3656.1	3366.1
0	199718	3656.1	3356.1
0	199719	3656.1	3656.1
0	199720	3656.1	3646.1
0	199721	3656.1	3636.1
0	199722	3656.1	3626.1
0	199723	3656.1	3616.1
0	199724	3656.1	3606.1
0	199725	3656.1	3596.1
0	199726	3656.1	3586.1
0	199727	3656.1	3576.1
0	199728	3656.1	3566.1
0	199729	3656.1	3556.1
0	199730	3656.1	3546.1
0	199731	3656.1	3536.1
0	199732	3656.1	3526.1
0	199733	3656.1	3516.1
0	199734	3656.1	3506.1
0	199735	3656.1	3496.1
0	199736	3656.1	3486.1
0	199737	3656.1	3476.1
0	199738	3656.1	3466.1
0	199739	3656.1	3456.1
0	199740	3656.1	3446.1
0	199741	3656.1	3436.1
0	199742	3656.1	3426.1
0	199743	3656.1	3416.1
0	199744	3656.1	3406.1
0	199745	3656.1	3396.1
0	199746	3656.1	3386.1
0	199747	3656.1	3376.1
0	199748	3656.1	3366.1
0	199749	3656.1	3356.1
0	199750	3656.1	3656.1
0	199751	3656.1	3646.1
0	199752	3656.1	3636.1
0	199753	3656.1	3626.1
0	199754	3656.1	3616.1
0	199755	3656.1	3606.1
0	199756	3656.1	3596.1
0	199757	3656.1	3586.1
0	199758	3656.1	3576.1
0	199759	3656.1	3566.1
0	199760	3656.1	3556.1
0	199761	3656.1	3546.1
0	199762	3656.1	3536.1
0	199763	3656.1	3526.1
0	199764	3656.1	3516.1
0	199765	3656.1	3506.1
0	199766	3656.1	3496.1
0	199767	3656.1	3486.1
0	199768	3656.1	3476.1
0	199769	3656.1	3466.1
0	199770	3656.1	3456.1
0	199771	3656.1	3446.1
0	199772	3656.1	3436.1
0	199773	3656.1	3426.1
0	199774	3656.1	3416.1
0	199775	3656.1	3406.1
0	199776	3656.1	3396.1
0	199777	3656.1	3386.1
0	199778	3656.1	3376.1
0	199779	3656.1	3366.1
0	199780	3656.1	3356.1
0	199781	3656.1	3656.1
0	199782	3656.1	3646.1
0	199783	3656.1	3636.1
0	199784	3656.1	3626.1
0	199785	3656.1	3616.1
0	199786	3656.1	3606.1
0	199787	3656.1	3596.1
0	199788	3656.1	3586.1
0	199789	3656.1	3576.1
0	199790	3656.1	3566.1
0	199791	3656.1	3556.1
0	199792	3656.1	3546.1
0	199793	3656.1	3536.1
0	199794	3656.1	3526.1
0	199795	3656.1	3516.1
0	199796	3656.1	3506.1
0	199797	3656.1	3496.1
0	199798	3656.1	3486.1
0	199799	3656.1	3476.1
0	199800	3656.1	3466.1
0	199801	3656.1	3456.1
0	199802	3656.1	3446.1
0	199803	3656.1	3436.1
0	199804	3656.1	3426.1
0	199805	3656.1	3416.1
0	199806	3656.1	3406.1
0	199807	3656.1	3396.1
0	199808	3656.1	3386.1
0	199809	3656.1	3376.1
0	199810	3656.1	3366.1
0	199811	3656.1	3356.1
0	199812	3656.1	3346.1
0	199813	3656.1	3246.1
0	199814	3656.1	3146.1
0	199815	3656.1	3046.1
0	199816	3656.1	2946.1
0	199817	3656.1	2846.1
0	199818	3656.1	2746.1
0	199819	3656.1	2646.1
0	199820	3656.1	3346.1
0	199821	3656.1	3246.1
0	199822	3656.1	3146.1
0	199823	3656.1	3046.1
0	199824	3656.1	2946.1
0	199825	3656.1	2846.1
0	199826	3656.1	2746.1
0	199827	3656.1	2646.1
0	199828	3656.1	3346.1
0	199829	3656.1	3246.1
0	199830	3656.1	3146.1
0	199831	3656.1	3046.1
0	199832	3656.1	2946.1
0	199833	3656.1	2846.1
0	199834	3656.1	2746.1
0	199835	3656.1	2646.1
0	199836	3656.1	2546.1
0	199837	3656.1	3346.1
0	199838	3656.1	3246.1
0	199839	3656.1	3146.1
0	199840	3656.1	3046.1
0	199841	3656.1	2946.1
0	199842	3656.1	2846.1
0	199843	3656.1	2746.1
0	199844	3656.1	2646.1
0	199845	3656.1	2546.1
0	199846	3656.1	2446.1
0	199847	3656.1	2346.1
0	199848	3656.1	2246.1
0	199849	3656.1	2146.1
0	199850	3656.1	2046.1
0	199851	3656.1	1946.1
0	199852	3656.1	1846.1
0	199853	3656.1	1746.1
0	199854	3656.1	1646.1
0	199855	3656.1	1546.1
0	199856	3656.1	1446.1
0	199857	3656.1	1346.1
0	199858	3656.1	1246.1
0	199859	3656.1	1146.1
0	199860	3656.1	1046.1
0	199861	3656.1	3336.1
0	199862	3656.1	3236.1
0	199863	3656.1	3136.1
0	199864	3656.1	3036.1
0	199865	3656.1	2936.1
0	199866	3656.1	2836.1
0	199867	3656.1	2736.1
0	199868	3656.1	2636.1
0	199869	3656.1	3336.1
0	199870	3656.1	3236.1
0	199871	3656.1	3136.1
0	199872	3656.1	3036.1
0	199873	3656.1	2936.1
0	199874	3656.1	2836.1
0	199875	3656.1	2736.1
0	199876	3656.1	2636.1
0	199877	3656.1	3336.1
0	199878	3656.1	3236.1
0	199879	3656.1	3136.1
0	199880	3656.1	3036.1
0	199881	3656.1	2936.1
0	199882	3656.1	2836.1
0	199883	3656.1	2736.1
0	199884	3656.1	2636.1
0	199885	3656.1	2536.1
0	199886	3656.1	3336.1
0	199887	3656.1	3236.1
0	199888	3656.1	3136.1
0	199889	3656.1	3036.1
0	199890	3656.1	2936.1
0	199891	3656.1	2836.1
0	199892	3656.1	2736.1
0	199893	3656.1	2636.1
0	199894	3656.1	2536.1
0	199895	3656.1	2436.1
0	199896	3656.1	2336.1
0	199897	3656.1	2236.1
0	199898	3656.1	2136.1
0	199899	3656.1	2036.1
0	199900	3656.1	1936.1
0	199901	3656.1	1836.1
0	199902	3656.1	1736.1
0	199903	3656.1	1636.1
0	199904	3656.1	1536.1
0	199905	3656.1	1436.1
0	199906	3656.1	1336.1
0	199907	3656.1	1236.1
0	199908	3656.1	1136.1
0	199909	3656.1	1036.1
0	199910	3656.1	3326.1
0	199911	3656.1	3226.1
0	199912	3656.1	3126.1
0	199913	3656.1	3026.1
0	199914	3656.1	2926.1
0	199915	3656.1	2826.1
0	199916	3656.1	2726.1
0	199917	3656.1	2626.1
0	199918	3656.1	3326.1
0	199919	3656.1	3226.1
0	199920	3656.1	3126.1
0	199921	3656.1	3026.1
0	199922	3656.1	2926.1
0	199923	3656.1	2826.1
0	199924	3656.1	2726.1
0	199925	3656.1	2626.1
0	199926	3656.1	3326.1
0	199927	3656.1	3226.1
0	199928	3656.1	3126.1
0	199929	3656.1	3026.1
0	199930	3656.1	2926.1
0	199931	3656.1	2826.1
0	199932	3656.1	2726.1
0	199933	3656.1	2626.1
0	199934	3656.1	2526.1
0	199935	3656.1	3326.1
0	199936	3656.1	3226.1
0	199937	3656.1	3126.1
0	199938	3656.1	3026.1
0	199939	3656.1	2926.1
0	199940	3656.1	2826.1
0	199941	3656.1	2726.1
0	199942	3656.1	2626.1
0	199943	3656.1	2526.1
0	199944	3656.1	2426.1
0	199945	3656.1	2326.1
0	199946	3656.1	2226.1
0	199947	3656.1	2126.1
0	199948	3656.1	2026.1
0	199949	3656.1	1926.1
0	199950	3656.1	1826.1
0	199951	3656.1	1726.1
0	199952	3656.1	1626.1
0	199953	3656.1	1526.1
0	199954	3656.1	1426.1
0	199955	3656.1	1326.1
0	199956	3656.1	1226.1
0	199957	3656.1	1126.1
0	199958	3656.1	1026.1
0	199959	3656.1	3316.1
0	199960	3656.1	3216.1
0	199961	3656.1	3116.1
0	199962	3656.1	3016.1
0	199963	3656.1	2916.1
0	199964	3656.1	2816.1
0	199965	3656.1	2716.1
0	199966	3656.1	2616.1
0	199967	3656.1	3316.1
0	199968	3656.1	3216.1
0	199969	3656.1	3116.1
0	199970	3656.1	3016.1
0	199971	3656.1	2916.1
0	199972	3656.1	2816.1
0	199973	3656.1	2716.1
0	199974	3656.1	2616.1
0	199975	3656.1	3316.1
0	199976	3656.1	3216.1
0	199977	3656.1	3116.1
0	199978	3656.1	3016.1
0	199979	3656.1	2916.1
0	199980	3656.1	2816.1
0	199981	3656.1	2716.1
0	199982	3656.1	2616.1
0	199983	3656.1	2516.1
0	199984	3656.1	3316.1
0	199985	3656.1	3216.1
0	199986	3656.1	3116.1
0	199987	3656.1	3016.1
0	199988	3656.1	2916.1
0	199989	3656.1	2816.1
0	199990	3656.1	2716.1
0	199991	3656.1	2616.1
0	199992	3656.1	2516.1
0	199993	3656.1	2416.1
0	199994	3656.1	2316.1
0	199995	3656.1	2216.1
0	199996	3656.1	2116.1
0	199997	3656.1	2016.1
0	199998	3656.1	1916.1
0	199999	3656.1	1816.1
0	200000	3656.1	1716.1
0	200001	3656.1	1616.1
0	200002	3656.1	1516.1
0	200003	3656.1	1416.1
0	200004	3656.1	1316.1
0	200005	3656.1	1216.1
0	200006	3656.1	1116.1
0	200007	3656.1	1016.1
0	200008	3656.1	3306.1
0	200009	3656.1	3206.1
0	200010	3656.1	3106.1
0	200011	3656.1	3006.1
0	200012	3656.1	2906.1
0	200013	3656.1	2806.1
0	200014	3656.1	2706.1
0	200015	3656.1	2606.1
0	200016	3656.1	3306.1
0	200017	3656.1	3206.1
0	200018	3656.1	3106.1
0	200019	3656.1	3006.1
0	200020	3656.1	2906.1
0	200021	3656.1	2806.1
0	200022	3656.1	2706.1
0	200023	3656.1	2606.1
0	200024	3656.1	3306.1
0	200025	3656.1	3206.1
0	200026	3656.1	3106.1
0	200027	3656.1	3006.1
0	200028	3656.1	2906.1
0	200029	3656.1	2806.1
0	200030	3656.1	2706.1
0	200031	3656.1	2606.1
0	200032	3656.1	2506.1
0	200033	3656.1	3306.1
0	200034	3656.1	3206.1
0	200035	3656.1	3106.1
0	200036	3656.1	3006.1
0	200037	3656.1	2906.1
0	200038	3656.1	2806.1
0	200039	3656.1	2706.1
0	200040	3656.1	2606.1
0	200041	3656.1	2506.1
0	200042	3656.1	2406.1
0	200043	3656.1	2306.1
0	200044	3656.1	2206.1
0	200045	3656.1	2106.1
0	200046	3656.1	2006.1
0	200047	3656.1	1906.1
0	200048	3656.1	1806.1
0	200049	3656.1	1706.1
0	200050	3656.1	1606.1
0	200051	3656.1	1506.1
0	200052	3656.1	1406.1
0	200053	3656.1	1306.1
0	200054	3656.1	1206.1
0	200055	3656.1	1106.1
0	200056	3656.1	1006.1
0	200057	3656.1	3296.1
0	200058	3656.1	3196.1
0	200059	3656.1	3096.1
0	200060	3656.1	2996.1
0	200061	3656.1	2896.1
0	200062	3656.1	2796.1
0	200063	3656.1	2696.1
0	200064	3656.1	2596.1
0	200065	3656.1	3296.1
0	200066	3656.1	3196.1
0	200067	3656.1	3096.1
0	200068	3656.1	2996.1
0	200069	3656.1	2896.1
0	200070	3656.1	2796.1
0	200071	3656.1	2696.1
0	200072	3656.1	2596.1
0	200073	3656.1	3296.1
0	200074	3656.1	3196.1
0	200075	3656.1	3096.1
0	200076	3656.1	2996.1
0	200077	3656.1	2896.1
0	200078	3656.1	2796.1
0	200079	3656.1	2696.1
0	200080	3656.1	2596.1
0	200081	3656.1	2496.1
0	200082	3656.1	3296.1
0	200083	3656.1	3196.1
0	200084	3656.1	3096.1
0	200085	3656.1	2996.1
0	200086	3656.1	2896.1
0	200087	3656.1	2796.1
0	200088	3656.1	2696.1
0	200089	3656.1	2596.1
0	200090	3656.1	2496.1
0	200091	3656.1	2396.1
0	200092	3656.1	2296.1
0	200093	3656.1	2196.1
0	200094	3656.1	2096.1
0	200095	3656.1	1996.1
0	200096	3656.1	1896.1
0	200097	3656.1	1796.1
0	200098	3656.1	1696.1
0	200099	3656.1	1596.1
0	200100	3656.1	1496.1
0	200101	3656.1	1396.1
0	200102	3656.1	1296.1
0	200103	3656.1	1196.1
0	200104	3656.1	1096.1
0	200105	3656.1	996.1
0	200106	3656.1	3286.1
0	200107	3656.1	3186.1
0	200108	3656.1	3086.1
0	200109	3656.1	2986.1
0	200110	3656.1	2886.1
0	200111	3656.1	2786.1
0	200112	3656.1	2686.1
0	200113	3656.1	2586.1
0	200114	3656.1	3286.1
0	200115	3656.1	3186.1
0	200116	3656.1	3086.1
0	200117	3656.1	2986.1
0	200118	3656.1	2886.1
0	200119	3656.1	2786.1
0	200120	3656.1	2686.1
0	200121	3656.1	2586.1
0	200122	3656.1	3286.1
0	200123	3656.1	3186.1
0	200124	3656.1	3086.1
0	200125	3656.1	2986.1
0	200126	3656.1	2886.1
0	200127	3656.1	2786.1
0	200128	3656.1	2686.1
0	200129	3656.1	2586.1
0	200130	3656.1	2486.1
0	200131	3656.1	3286.1
0	200132	3656.1	3186.1
0	200133	3656.1	3086.1
0	200134	3656.1	2986.1
0	200135	3656.1	2886.1
0	200136	3656.1	2786.1
0	200137	3656.1	2686.1
0	200138	3656.1	2586.1
0	200139	3656.1	2486.1
0	200140	3656.1	2386.1
0	200141	3656.1	2286.1
0	200142	3656.1	2186.1
0	200143	3656.1	2086.1
0	200144	3656.1	1986.1
0	200145	3656.1	1886.1
0	200146	3656.1	1786.1
0	200147	3656.1	1686.1
0	200148	3656.1	1586.1
0	200149	3656.1	1486.1
0	200150	3656.1	1386.1
0	200151	3656.1	1286.1
0	200152	3656.1	1186.1
0	200153	3656.1	1086.1
0	200154	3656.1	986.1
0	200155	3656.1	3276.1
0	200156	3656.1	3176.1
0	200157	3656.1	3076.1
0	200158	3656.1	2976.1
0	200159	3656.1	2876.1
0	200160	3656.1	2776.1
0	200161	3656.1	2676.1
0	200162	3656.1	2576.1
0	200163	3656.1	3276.1
0	200164	3656.1	3176.1
0	200165	3656.1	3076.1
0	200166	3656.1	2976.1
0	200167	3656.1	2876.1
0	200168	3656.1	2776.1
0	200169	3656.1	2676.1
0	200170	3656.1	2576.1
0	200171	3656.1	3276.1
0	200172	3656.1	3176.1
0	200173	3656.1	3076.1
0	200174	3656.1	2976.1
0	200175	3656.1	2876.1
0	200176	3656.1	2776.1
0	200177	3656.1	2676.1
0	200178	3656.1	2576.1
0	200179	3656.1	2476.1
0	200180	3656.1	3276.1
0	200181	3656.1	3176.1
0	200182	3656.1	3076.1
0	200183	3656.1	2976.1
0	200184	3656.1	2876.1
0	200185	3656.1	2776.1
0	200186	3656.1	2676.1
0	200187	3656.1	2576.1
0	200188	3656.1	2476.1
0	200189	3656.1	2376.1
0	200190	3656.1	2276.1
0	200191	3656.1	2176.1
0	200192	3656.1	2076.1
0	200193	3656.1	1976.1
0	200194	3656.1	1876.1
0	200195	3656.1	1776.1
0	200196	3656.1	1676.1
0	200197	3656.1	1576.1
0	200198	3656.1	1476.1
0	200199	3656.1	1376.1
0	200200	3656.1	1276.1
0	200201	3656.1	1176.1
0	200202	3656.1	1076.1
0	200203	3656.1	976.1
0	200204	3656.1	3266.1
0	200205	3656.1	3166.1
0	200206	3656.1	3066.1
0	200207	3656.1	2966.1
0	200208	3656.1	2866.1
0	200209	3656.1	2766.1
0	200210	3656.1	2666.1
0	200211	3656.1	2566.1
0	200212	3656.1	3266.1
0	200213	3656.1	3166.1
0	200214	3656.1	3066.1
0	200215	3656.1	2966.1
0	200216	3656.1	2866.1
0	200217	3656.1	2766.1
0	200218	3656.1	2666.1
0	200219	3656.1	2566.1
0	200220	3656.1	3266.1
0	200221	3656.1	3166.1
0	200222	3656.1	3066.1
0	200223	3656.1	2966.1
0	200224	3656.1	2866.1
0	200225	3656.1	2766.1
0	200226	3656.1	2666.1
0	200227	3656.1	2566.1
0	200228	3656.1	2466.1
0	200229	3656.1	3266.1
0	200230	3656.1	3166.1
0	200231	3656.1	3066.1
0	200232	3656.1	2966.1
0	200233	3656.1	2866.1
0	200234	3656.1	2766.1
0	200235	3656.1	2666.1
0	200236	3656.1	2566.1
0	200237	3656.1	2466.1
0	200238	3656.1	2366.1
0	200239	3656.1	2266.1
0	200240	3656.1	2166.1
0	200241	3656.1	2066.1
0	200242	3656.1	1966.1
0	200243	3656.1	1866.1
0	200244	3656.1	1766.1
0	200245	3656.1	1666.1
0	200246	3656.1	1566.1
0	200247	3656.1	1466.1
0	200248	3656.1	1366.1
0	200249	3656.1	1266.1
0	200250	3656.1	1166.1
0	200251	3656.1	1066.1
0	200252	3656.1	966.1
0	200253	3656.1	3256.1
0	200254	3656.1	3156.1
0	200255	3656.1	3056.1
0	200256	3656.1	2956.1
0	200257	3656.1	2856.1
0	200258	3656.1	2756.1
0	200259	3656.1	2656.1
0	200260	3656.1	2556.1
0	200261	3656.1	3256.1
0	200262	3656.1	3156.1
0	200263	3656.1	3056.1
0	200264	3656.1	2956.1
0	200265	3656.1	2856.1
0	200266	3656.1	2756.1
0	200267	3656.1	2656.1
0	200268	3656.1	2556.1
0	200269	3656.1	3256.1
0	200270	3656.1	3156.1
0	200271	3656.1	3056.1
0	200272	3656.1	2956.1
0	200273	3656.1	2856.1
0	200274	3656.1	2756.1
0	200275	3656.1	2656.1
0	200276	3656.1	2556.1
0	200277	3656.1	2456.1
0	200278	3656.1	3256.1
0	200279	3656.1	3156.1
0	200280	3656.1	3056.1
0	200281	3656.1	2956.1
0	200282	3656.1	2856.1
0	200283	3656.1	2756.1
0	200284	3656.1	2656.1
0	200285	3656.1	2556.1
0	200286	3656.1	2456.1
0	200287	3656.1	2356.1
0	200288	3656.1	2256.1
0	200289	3656.1	2156.1
0	200290	3656.1	2056.1
0	200291	3656.1	1956.1
0	200292	3656.1	1856.1
0	200293	3656.1	1756.1
0	200294	3656.1	1656.1
0	200295	3656.1	1556.1
0	200296	3656.1	1456.1
0	200297	3656.1	1356.1
0	200298	3656.1	1256.1
0	200299	3656.1	1156.1
0	200300	3656.1	1056.1
0	200301	3656.1	956.1
0	200302	3656.1	3656.1
0	200303	3656.1	3646.1
0	200304	3656.1	3636.1
0	200305	3656.1	3626.1
0	200306	3656.1	3616.1
0	200307	3656.1	3606.1
0	200308	3656.1	3596.1
0	200309	3656.1	3586.1
0	200310	3656.1	3576.1
0	200311	3656.1	3566.1
0	200312	3656.1	3556.1
0	200313	3656.1	3546.1
0	200314	3656.1	3536.1
0	200315	3656.1	3526.1
0	200316	3656.1	3516.1
0	200317	3656.1	3506.1
0	200318	3656.1	3496.1
0	200319	3656.1	3486.1
0	200320	3656.1	3476.1
0	200321	3656.1	3466.1
0	200322	3656.1	3456.1
0	200323	3656.1	3446.1
0	200324	3656.1	3436.1
0	200325	3656.1	3426.1
0	200326	3656.1	3416.1
0	200327	3656.1	3406.1
0	200328	3656.1	3396.1
0	200329	3656.1	3386.1
0	200330	3656.1	3376.1
0	200331	3656.1	3366.1
0	200332	3656.1	3356.1
0	200333	3656.1	3656.1
0	200334	3656.1	3646.1
0	200335	3656.1	3636.1
0	200336	3656.1	3626.1
0	200337	3656.1	3616.1
0	200338	3656.1	3606.1
0	200339	3656.1	3596.1
0	200340	3656.1	3586.1
0	200341	3656.1	3576.1
0	200342	3656.1	3566.1
0	200343	3656.1	3556.1
0	200344	3656.1	3546.1
0	200345	3656.1	3536.1
0	200346	3656.1	3526.1
0	200347	3656.1	3516.1
0	200348	3656.1	3506.1
0	200349	3656.1	3496.1
0	200350	3656.1	3486.1
0	200351	3656.1	3476.1
0	200352	3656.1	3466.1
0	200353	3656.1	3456.1
0	200354	3656.1	3446.1
0	200355	3656.1	3436.1
0	200356	3656.1	3426.1
0	200357	3656.1	3416.1
0	200358	3656.1	3406.1
0	200359	3656.1	3396.1
0	200360	3656.1	3386.1
0	200361	3656.1	3376.1
0	200362	3656.1	3366.1
0	200363	3656.1	3356.1
0	200364	3656.1	3656.1
0	200365	3656.1	3646.1
0	200366	3656.1	3636.1
0	200367	3656.1	3626.1
0	200368	3656.1	3616.1
0	200369	3656.1	3606.1
0	200370	3656.1	3596.1
0	200371	3656.1	3586.1
0	200372	3656.1	3576.1
0	200373	3656.1	3566.1
0	200374	3656.1	3556.1
0	200375	3656.1	3546.1
0	200376	3656.1	3536.1
0	200377	3656.1	3526.1
0	200378	3656.1	3516.1
0	200379	3656.1	3506.1
0	200380	3656.1	3496.1
0	200381	3656.1	3486.1
0	200382	3656.1	3476.1
0	200383	3656.1	3466.1
0	200384	3656.1	3456.1
0	200385	3656.1	3446.1
0	200386	3656.1	3436.1
0	200387	3656.1	3426.1
0	200388	3656.1	3416.1
0	200389	3656.1	3406.1
0	200390	3656.1	3396.1
0	200391	3656.1	3386.1
0	200392	3656.1	3376.1
0	200393	3656.1	3366.1
0	200394	3656.1	3356.1
0	200395	3656.1	3656.1
0	200396	3656.1	3646.1
0	200397	3656.1	3636.1
0	200398	3656.1	3626.1
0	200399	3656.1	3616.1
0	200400	3656.1	3606.1
0	200401	3656.1	3596.1
0	200402	3656.1	3586.1
0	200403	3656.1	3576.1
0	200404	3656.1	3566.1
0	200405	3656.1	3556.1
0	200406	3656.1	3546.1
0	200407	3656.1	3536.1
0	200408	3656.1	3526.1
0	200409	3656.1	3516.1
0	200410	3656.1	3506.1
0	200411	3656.1	3496.1
0	200412	3656.1	3486.1
0	200413	3656.1	3476.1
0	200414	3656.1	3466.1
0	200415	3656.1	3456.1
0	200416	3656.1	3446.1
0	200417	3656.1	3436.1
0	200418	3656.1	3426.1
0	200419	3656.1	3416.1
0	200420	3656.1	3406.1
0	200421	3656.1	3396.1
0	200422	3656.1	3386.1
0	200423	3656.1	3376.1
0	200424	3656.1	3366.1
0	200425	3656.1	3356.1
0	200426	3656.1	3346.1
0	200427	3656.1	3246.1
0	200428	3656.1	3146.1
0	200429	3656.1	3046.1
0	200430	3656.1	2946.1
0	200431	3656.1	2846.1
0	200432	3656.1	2746.1
0	200433	3656.1	2646.1
0	200434	3656.1	2546.1
0	200435	3656.1	3346.1
0	200436	3656.1	3246.1
0	200437	3656.1	3146.1
0	200438	3656.1	3046.1
0	200439	3656.1	2946.1
0	200440	3656.1	2846.1
0	200441	3656.1	2746.1
0	200442	3656.1	2646.1
0	200443	3656.1	2546.1
0	200444	3656.1	3346.1
0	200445	3656.1	3246.1
0	200446	3656.1	3146.1
0	200447	3656.1	3046.1
0	200448	3656.1	2946.1
0	200449	3656.1	2846.1
0	200450	3656.1	2746.1
0	200451	3656.1	2646.1
0	200452	3656.1	2546.1
0	200453	3656.1	2446.1
0	200454	3656.1	3346.1
0	200455	3656.1	3246.1
0	200456	3656.1	3146.1
0	200457	3656.1	3046.1
0	200458	3656.1	2946.1
0	200459	3656.1	2846.1
0	200460	3656.1	2746.1
0	200461	3656.1	2646.1
0	200462	3656.1	2546.1
0	200463	3656.1	2446.1
0	200464	3656.1	2346.1
0	200465	3656.1	2246.1
0	200466	3656.1	2146.1
0	200467	3656.1	2046.1
0	200468	3656.1	1946.1
0	200469	3656.1	1846.1
0	200470	3656.1	1746.1
0	200471	3656.1	1646.1
0	200472	3656.1	1546.1
0	200473	3656.1	1446.1
0	200474	3656.1	1346.1
0	200475	3656.1	1246.1
0	200476	3656.1	1146.1
0	200477	3656.1	1046.1
0	200478	3656.1	946.1
0	200479	3656.1	3336.1
0	200480	3656.1	3236.1
0	200481	3656.1	3136.1
0	200482	3656.1	3036.1
0	200483	3656.1	2936.1
0	200484	3656.1	2836.1
0	200485	3656.1	2736.1
0	200486	3656.1	2636.1
0	200487	3656.1	2536.1
0	200488	3656.1	3336.1
0	200489	3656.1	3236.1
0	200490	3656.1	3136.1
0	200491	3656.1	3036.1
0	200492	3656.1	2936.1
0	200493	3656.1	2836.1
0	200494	3656.1	2736.1
0	200495	3656.1	2636.1
0	200496	3656.1	2536.1
0	200497	3656.1	3336.1
0	200498	3656.1	3236.1
0	200499	3656.1	3136.1
0	200500	3656.1	3036.1
0	200501	3656.1	2936.1
0	200502	3656.1	2836.1
0	200503	3656.1	2736.1
0	200504	3656.1	2636.1
0	200505	3656.1	2536.1
0	200506	3656.1	2436.1
0	200507	3656.1	3336.1
0	200508	3656.1	3236.1
0	200509	3656.1	3136.1
0	200510	3656.1	3036.1
0	200511	3656.1	2936.1
0	200512	3656.1	2836.1
0	200513	3656.1	2736.1
0	200514	3656.1	2636.1
0	200515	3656.1	2536.1
0	200516	3656.1	2436.1
0	200517	3656.1	2336.1
0	200518	3656.1	2236.1
0	200519	3656.1	2136.1
0	200520	3656.1	2036.1
0	200521	3656.1	1936.1
0	200522	3656.1	1836.1
0	200523	3656.1	1736.1
0	200524	3656.1	1636.1
0	200525	3656.1	1536.1
0	200526	3656.1	1436.1
0	200527	3656.1	1336.1
0	200528	3656.1	1236.1
0	200529	3656.1	1136.1
0	200530	3656.1	1036.1
0	200531	3656.1	936.1
0	200532	3656.1	3326.1
0	200533	3656.1	3226.1
0	200534	3656.1	3126.1
0	200535	3656.1	3026.1
0	200536	3656.1	2926.1
0	200537	3656.1	2826.1
0	200538	3656.1	2726.1
0	200539	3656.1	2626.1
0	200540	3656.1	2526.1
0	200541	3656.1	3326.1
0	200542	3656.1	3226.1
0	200543	3656.1	3126.1
0	200544	3656.1	3026.1
0	200545	3656.1	2926.1
0	200546	3656.1	2826.1
0	200547	3656.1	2726.1
0	200548	3656.1	2626.1
0	200549	3656.1	2526.1
0	200550	3656.1	3326.1
0	200551	3656.1	3226.1
0	200552	3656.1	3126.1
0	200553	3656.1	3026.1
0	200554	3656.1	2926.1
0	200555	3656.1	2826.1
0	200556	3656.1	2726.1
0	200557	3656.1	2626.1
0	200558	3656.1	2526.1
0	200559	3656.1	2426.1
0	200560	3656.1	3326.1
0	200561	3656.1	3226.1
0	200562	3656.1	3126.1
0	200563	3656.1	3026.1
0	200564	3656.1	2926.1
0	200565	3656.1	2826.1
0	200566	3656.1	2726.1
0	200567	3656.1	2626.1
0	200568	3656.1	2526.1
0	200569	3656.1	2426.1
0	200570	3656.1	2326.1
0	200571	3656.1	2226.1
0	200572	3656.1	2126.1
0	200573	3656.1	2026.1
0	200574	3656.1	1926.1
0	200575	3656.1	1826.1
0	200576	3656.1	1726.1
0	200577	3656.1	1626.1
0	200578	3656.1	1526.1
0	200579	3656.1	1426.1
0	200580	3656.1	1326.1
0	200581	3656.1	1226.1
0	200582	3656.1	1126.1
0	200583	3656.1	1026.1
0	200584	3656.1	926.1
0	200585	3656.1	3316.1
0	200586	3656.1	3216.1
0	200587	3656.1	3116.1
0	200588	3656.1	3016.1
0	200589	3656.1	2916.1
0	200590	3656.1	2816.1
0	200591	3656.1	2716.1
0	200592	3656.1	2616.1
0	200593	3656.1	2516.1
0	200594	3656.1	3316.1
0	200595	3656.1	3216.1
0	200596	3656.1	3116.1
0	200597	3656.1	3016.1
0	200598	3656.1	2916.1
0	200599	3656.1	2816.1
0	200600	3656.1	2716.1
0	200601	3656.1	2616.1
0	200602	3656.1	2516.1
0	200603	3656.1	3316.1
0	200604	3656.1	3216.1
0	200605	3656.1	3116.1
0	200606	3656.1	3016.1
0	200607	3656.1	2916.1
0	200608	3656.1	2816.1
0	200609	3656.1	2716.1
0	200610	3656.1	2616.1
0	200611	3656.1	2516.1
0	200612	3656.1	2416.1
0	200613	3656.1	3316.1
0	200614	3656.1	3216.1
0	200615	3656.1	3116.1
0	200616	3656.1	3016.1
0	200617	3656.1	2916.1
0	200618	3656.1	2816.1
0	200619	3656.1	2716.1
0	200620	3656.1	2616.1
0	200621	3656.1	2516.1
0	200622	3656.1	2416.1
0	200623	3656.1	2316.1
0	200624	3656.1	2216.1
0	200625	3656.1	2116.1
0	200626	3656.1	2016.1
0	200627	3656.1	1916.1
0	200628	3656.1	1816.1
0	200629	3656.1	1716.1
0	200630	3656.1	1616.1
0	200631	3656.1	1516.1
0	200632	3656.1	1416.1
0	200633	3656.1	1316.1
0	200634	3656.1	1216.1
0	200635	3656.1	1116.1
0	200636	3656.1	1016.1
0	200637	3656.1	916.1
0	200638	3656.1	3306.1
0	200639	3656.1	3206.1
0	200640	3656.1	3106.1
0	200641	3656.1	3006.1
0	200642	3656.1	2906.1
0	200643	3656.1	2806.1
0	200644	3656.1	2706.1
0	200645	3656.1	2606.1
0	200646	3656.1	2506.1
0	200647	3656.1	3306.1
0	200648	3656.1	3206.1
0	200649	3656.1	3106.1
0	200650	3656.1	3006.1
0	200651	3656.1	2906.1
0	200652	3656.1	2806.1
0	200653	3656.1	2706.1
0	200654	3656.1	2606.1
0	200655	3656.1	2506.1
0	200656	3656.1	3306.1
0	200657	3656.1	3206.1
0	200658	3656.1	3106.1
0	200659	3656.1	3006.1
0	200660	3656.1	2906.1
0	200661	3656.1	2806.1
0	200662	3656.1	2706.1
0	200663	3656.1	2606.1
0	200664	3656.1	2506.1
0	200665	3656.1	2406.1
0	200666	3656.1	3306.1
0	200667	3656.1	3206.1
0	200668	3656.1	3106.1
0	200669	3656.1	3006.1
0	200670	3656.1	2906.1
0	200671	3656.1	2806.1
0	200672	3656.1	2706.1
0	200673	3656.1	2606.1
0	200674	3656.1	2506.1
0	200675	3656.1	2406.1
0	200676	3656.1	2306.1
0	200677	3656.1	2206.1
0	200678	3656.1	2106.1
0	200679	3656.1	2006.1
0	200680	3656.1	1906.1
0	200681	3656.1	1806.1
0	200682	3656.1	1706.1
0	200683	3656.1	1606.1
0	200684	3656.1	1506.1
0	200685	3656.1	1406.1
0	200686	3656.1	1306.1
0	200687	3656.1	1206.1
0	200688	3656.1	1106.1
0	200689	3656.1	1006.1
0	200690	3656.1	906.1
0	200691	3656.1	3296.1
0	200692	3656.1	3196.1
0	200693	3656.1	3096.1
0	200694	3656.1	2996.1
0	200695	3656.1	2896.1
0	200696	3656.1	2796.1
0	200697	3656.1	2696.1
0	200698	3656.1	2596.1
0	200699	3656.1	2496.1
0	200700	3656.1	3296.1
0	200701	3656.1	3196.1
0	200702	3656.1	3096.1
0	200703	3656.1	2996.1
0	200704	3656.1	2896.1
0	200705	3656.1	2796.1
0	200706	3656.1	2696.1
0	200707	3656.1	2596.1
0	200708	3656.1	2496.1
0	200709	3656.1	3296.1
0	200710	3656.1	3196.1
0	200711	3656.1	3096.1
0	200712	3656.1	2996.1
0	200713	3656.1	2896.1
0	200714	3656.1	2796.1
0	200715	3656.1	2696.1
0	200716	3656.1	2596.1
0	200717	3656.1	2496.1
0	200718	3656.1	2396.1
0	200719	3656.1	3296.1
0	200720	3656.1	3196.1
0	200721	3656.1	3096.1
0	200722	3656.1	2996.1
0	200723	3656.1	2896.1
0	200724	3656.1	2796.1
0	200725	3656.1	2696.1
0	200726	3656.1	2596.1
0	200727	3656.1	2496.1
0	200728	3656.1	2396.1
0	200729	3656.1	2296.1
0	200730	3656.1	2196.1
0	200731	3656.1	2096.1
0	200732	3656.1	1996.1
0	200733	3656.1	1896.1
0	200734	3656.1	1796.1
0	200735	3656.1	1696.1
0	200736	3656.1	1596.1
0	200737	3656.1	1496.1
0	200738	3656.1	1396.1
0	200739	3656.1	1296.1
0	200740	3656.1	1196.1
0	200741	3656.1	1096.1
0	200742	3656.1	996.1
0	200743	3656.1	896.1
0	200744	3656.1	3286.1
0	200745	3656.1	3186.1
0	200746	3656.1	3086.1
0	200747	3656.1	2986.1
0	200748	3656.1	2886.1
0	200749	3656.1	2786.1
0	200750	3656.1	2686.1
0	200751	3656.1	2586.1
0	200752	3656.1	2486.1
0	200753	3656.1	3286.1
0	200754	3656.1	3186.1
0	200755	3656.1	3086.1
0	200756	3656.1	2986.1
0	200757	3656.1	2886.1
0	200758	3656.1	2786.1
0	200759	3656.1	2686.1
0	200760	3656.1	2586.1
0	200761	3656.1	2486.1
0	200762	3656.1	3286.1
0	200763	3656.1	3186.1
0	200764	3656.1	3086.1
0	200765	3656.1	2986.1
0	200766	3656.1	2886.1
0	200767	3656.1	2786.1
0	200768	3656.1	2686.1
0	200769	3656.1	2586.1
0	200770	3656.1	2486.1
0	200771	3656.1	2386.1
0	200772	3656.1	3286.1
0	200773	3656.1	3186.1
0	200774	3656.1	3086.1
0	200775	3656.1	2986.1
0	200776	3656.1	2886.1
0	200777	3656.1	2786.1
0	200778	3656.1	2686.1
0	200779	3656.1	2586.1
0	200780	3656.1	2486.1
0	200781	3656.1	2386.1
0	200782	3656.1	2286.1
0	200783	3656.1	2186.1
0	200784	3656.1	2086.1
0	200785	3656.1	1986.1
0	200786	3656.1	1886.1
0	200787	3656.1	1786.1
0	200788	3656.1	1686.1
0	200789	3656.1	1586.1
0	200790	3656.1	1486.1
0	200791	3656.1	1386.1
0	200792	3656.1	1286.1
0	200793	3656.1	1186.1
0	200794	3656.1	1086.1
0	200795	3656.1	986.1
0	200796	3656.1	886.1
0	200797	3656.1	3276.1
0	200798	3656.1	3176.1
0	200799	3656.1	3076.1
0	200800	3656.1	2976.1
0	200801	3656.1	2876.1
0	200802	3656.1	2776.1
0	200803	3656.1	2676.1
0	200804	3656.1	2576.1
0	200805	3656.1	2476.1
0	200806	3656.1	3276.1
0	200807	3656.1	3176.1
0	200808	3656.1	3076.1
0	200809	3656.1	2976.1
0	200810	3656.1	2876.1
0	200811	3656.1	2776.1
0	200812	3656.1	2676.1
0	200813	3656.1	2576.1
0	200814	3656.1	2476.1
0	200815	3656.1	3276.1
0	200816	3656.1	3176.1
0	200817	3656.1	3076.1
0	200818	3656.1	2976.1
0	200819	3656.1	2876.1
0	200820	3656.1	2776.1
0	200821	3656.1	2676.1
0	200822	3656.1	2576.1
0	200823	3656.1	2476.1
0	200824	3656.1	2376.1
0	200825	3656.1	3276.1
0	200826	3656.1	3176.1
0	200827	3656.1	3076.1
0	200828	3656.1	2976.1
0	200829	3656.1	2876.1
0	200830	3656.1	2776.1
0	200831	3656.1	2676.1
0	200832	3656.1	2576.1
0	200833	3656.1	2476.1
0	200834	3656.1	2376.1
0	200835	3656.1	2276.1
0	200836	3656.1	2176.1
0	200837	3656.1	2076.1
0	200838	3656.1	1976.1
0	200839	3656.1	1876.1
0	200840	3656.1	1776.1
0	200841	3656.1	1676.1
0	200842	3656.1	1576.1
0	200843	3656.1	1476.1
0	200844	3656.1	1376.1
0	200845	3656.1	1276.1
0	200846	3656.1	1176.1
0	200847	3656.1	1076.1
0	200848	3656.1	976.1
0	200849	3656.1	876.1
0	200850	3656.1	3266.1
0	200851	3656.1	3166.1
0	200852	3656.1	3066.1
0	200853	3656.1	2966.1
0	200854	3656.1	2866.1
0	200855	3656.1	2766.1
0	200856	3656.1	2666.1
0	200857	3656.1	2566.1
0	200858	3656.1	2466.1
0	200859	3656.1	3266.1
0	200860	3656.1	3166.1
0	200861	3656.1	3066.1
0	200862	3656.1	2966.1
0	200863	3656.1	2866.1
0	200864	3656.1	2766.1
0	200865	3656.1	2666.1
0	200866	3656.1	2566.1
0	200867	3656.1	2466.1
0	200868	3656.1	3266.1
0	200869	3656.1	3166.1
0	200870	3656.1	3066.1
0	200871	3656.1	2966.1
0	200872	3656.1	2866.1
0	200873	3656.1	2766.1
0	200874	3656.1	2666.1
0	200875	3656.1	2566.1
0	200876	3656.1	2466.1
0	200877	3656.1	2366.1
0	200878	3656.1	3266.1
0	200879	3656.1	3166.1
0	200880	3656.1	3066.1
0	200881	3656.1	2966.1
0	200882	3656.1	2866.1
0	200883	3656.1	2766.1
0	200884	3656.1	2666.1
0	200885	3656.1	2566.1
0	200886	3656.1	2466.1
0	200887	3656.1	2366.1
0	200888	3656.1	2266.1
0	200889	3656.1	2166.1
0	200890	3656.1	2066.1
0	200891	3656.1	1966.1
0	200892	3656.1	1866.1
0	200893	3656.1	1766.1
0	200894	3656.1	1666.1
0	200895	3656.1	1566.1
0	200896	3656.1	1466.1
0	200897	3656.1	1366.1
0	200898	3656.1	1266.1
0	200899	3656.1	1166.1
0	200900	3656.1	1066.1
0	200901	3656.1	966.1
0	200902	3656.1	866.1
0	200903	3656.1	3256.1
0	200904	3656.1	3156.1
0	200905	3656.1	3056.1
0	200906	3656.1	2956.1
0	200907	3656.1	2856.1
0	200908	3656.1	2756.1
0	200909	3656.1	2656.1
0	200910	3656.1	2556.1
0	200911	3656.1	2456.1
0	200912	3656.1	3256.1
0	200913	3656.1	3156.1
0	200914	3656.1	3056.1
0	200915	3656.1	2956.1
0	200916	3656.1	2856.1
0	200917	3656.1	2756.1
0	200918	3656.1	2656.1
0	200919	3656.1	2556.1
0	200920	3656.1	2456.1
0	200921	3656.1	3256.1
0	200922	3656.1	3156.1
0	200923	3656.1	3056.1
0	200924	3656.1	2956.1
0	200925	3656.1	2856.1
0	200926	3656.1	2756.1
0	200927	3656.1	2656.1
0	200928	3656.1	2556.1
0	200929	3656.1	2456.1
0	200930	3656.1	2356.1
0	200931	3656.1	3256.1
0	200932	3656.1	3156.1
0	200933	3656.1	3056.1
0	200934	3656.1	2956.1
0	200935	3656.1	2856.1
0	200936	3656.1	2756.1
0	200937	3656.1	2656.1
0	200938	3656.1	2556.1
0	200939	3656.1	2456.1
0	200940	3656.1	2356.1
0	200941	3656.1	2256.1
0	200942	3656.1	2156.1
0	200943	3656.1	2056.1
0	200944	3656.1	1956.1
0	200945	3656.1	1856.1
0	200946	3656.1	1756.1
0	200947	3656.1	1656.1
0	200948	3656.1	1556.1
0	200949	3656.1	1456.1
0	200950	3656.1	1356.1
0	200951	3656.1	1256.1
0	200952	3656.1	1156.1
0	200953	3656.1	1056.1
0	200954	3656.1	956.1
0	200955	3656.1	856.1
0	200956	3656.1	3656.1
0	200957	3656.1	3646.1
0	200958	3656.1	3636.1
0	200959	3656.1	3626.1
0	200960	3656.1	3616.1
0	200961	3656.1	3606.1
0	200962	3656.1	3596.1
0	200963	3656.1	3586.1
0	200964	3656.1	3576.1
0	200965	3656.1	3566.1
0	200966	3656.1	3556.1
0	200967	3656.1	3546.1
0	200968	3656.1	3536.1
0	200969	3656.1	3526.1
0	200970	3656.1	3516.1
0	200971	3656.1	3506.1
0	200972	3656.1	3496.1
0	200973	3656.1	3486.1
0	200974	3656.1	3476.1
0	200975	3656.1	3466.1
0	200976	3656.1	3456.1
0	200977	3656.1	3446.1
0	200978	3656.1	3436.1
0	200979	3656.1	3426.1
0	200980	3656.1	3416.1
0	200981	3656.1	3406.1
0	200982	3656.1	3396.1
0	200983	3656.1	3386.1
0	200984	3656.1	3376.1
0	200985	3656.1	3366.1
0	200986	3656.1	3356.1
0	200987	3656.1	3656.1
0	200988	3656.1	3646.1
0	200989	3656.1	3636.1
0	200990	3656.1	3626.1
0	200991	3656.1	3616.1
0	200992	3656.1	3606.1
0	200993	3656.1	3596.1
0	200994	3656.1	3586.1
0	200995	3656.1	3576.1
0	200996	3656.1	3566.1
0	200997	3656.1	3556.1
0	200998	3656.1	3546.1
0	200999	3656.1	3536.1
0	201000	3656.1	3526.1
0	201001	3656.1	3516.1
0	201002	3656.1	3506.1
0	201003	3656.1	3496.1
0	201004	3656.1	3486.1
0	201005	3656.1	3476.1
0	201006	3656.1	3466.1
0	201007	3656.1	3456.1
0	201008	3656.1	3446.1
0	201009	3656.1	3436.1
0	201010	3656.1	3426.1
0	201011	3656.1	3416.1
0	201012	3656.1	3406.1
0	201013	3656.1	3396.1
0	201014	3656.1	3386.1
0	201015	3656.1	3376.1
0	201016	3656.1	3366.1
0	201017	3656.1	3356.1
0	201018	3656.1	3656.1
0	201019	3656.1	3646.1
0	201020	3656.1	3636.1
0	201021	3656.1	3626.1
0	201022	3656.1	3616.1
0	201023	3656.1	3606.1
0	201024	3656.1	3596.1
0	201025	3656.1	3586.1
0	201026	3656.1	3576.1
0	201027	3656.1	3566.1
0	201028	3656.1	3556.1
0	201029	3656.1	3546.1
0	201030	3656.1	3536.1
0	201031	3656.1	3526.1
0	201032	3656.1	3516.1
0	201033	3656.1	3506.1
0	201034	3656.1	3496.1
0	201035	3656.1	3486.1
0	201036	3656.1	3476.1
0	201037	3656.1	3466.1
0	201038	3656.1	3456.1
0	201039	3656.1	3446.1
0	201040	3656.1	3436.1
0	201041	3656.1	3426.1
0	201042	3656.1	3416.1
0	201043	3656.1	3406.1
0	201044	3656.1	3396.1
0	201045	3656.1	3386.1
0	201046	3656.1	3376.1
0	201047	3656.1	3366.1
0	201048	3656.1	3356.1
0	201049	3656.1	3656.1
0	201050	3656.1	3646.1
0	201051	3656.1	3636.1
0	201052	3656.1	3626.1
0	201053	3656.1	3616.1
0	201054	3656.1	3606.1
0	201055	3656.1	3596.1
0	201056	3656.1	3586.1
0	201057	3656.1	3576.1
0	201058	3656.1	3566.1
0	201059	3656.1	3556.1
0	201060	3656.1	3546.1
0	201061	3656.1	3536.1
0	201062	3656.1	3526.1
0	201063	3656.1	3516.1
0	201064	3656.1	3506.1
0	201065	3656.1	3496.1
0	201066	3656.1	3486.1
0	201067	3656.1	3476.1
0	201068	3656.1	3466.1
0	201069	3656.1	3456.1
0	201070	3656.1	3446.1
0	201071	3656.1	3436.1
0	201072	3656.1	3426.1
0	201073	3656.1	3416.1
0	201074	3656.1	3406.1
0	201075	3656.1	3396.1
0	201076	3656.1	3386.1
0	201077	3656.1	3376.1
0	201078	3656.1	3366.1
0	201079	3656.1	3356.1
0	201080	3656.1	3346.1
0	201081	3656.1	3246.1
0	201082	3656.1	3146.1
0	201083	3656.1	3046.1
0	201084	3656.1	2946.1
0	201085	3656.1	2846.1
0	201086	3656.1	2746.1
0	201087	3656.1	2646.1
0	201088	3656.1	2546.1
0	201089	3656.1	2446.1
0	201090	3656.1	3346.1
0	201091	3656.1	3246.1
0	201092	3656.1	3146.1
0	201093	3656.1	3046.1
0	201094	3656.1	2946.1
0	201095	3656.1	2846.1
0	201096	3656.1	2746.1
0	201097	3656.1	2646.1
0	201098	3656.1	2546.1
0	201099	3656.1	2446.1
0	201100	3656.1	3346.1
0	201101	3656.1	3246.1
0	201102	3656.1	3146.1
0	201103	3656.1	3046.1
0	201104	3656.1	2946.1
0	201105	3656.1	2846.1
0	201106	3656.1	2746.1
0	201107	3656.1	2646.1
0	201108	3656.1	2546.1
0	201109	3656.1	2446.1
0	201110	3656.1	2346.1
0	201111	3656.1	3346.1
0	201112	3656.1	3246.1
0	201113	3656.1	3146.1
0	201114	3656.1	3046.1
0	201115	3656.1	2946.1
0	201116	3656.1	2846.1
0	201117	3656.1	2746.1
0	201118	3656.1	2646.1
0	201119	3656.1	2546.1
0	201120	3656.1	2446.1
0	201121	3656.1	2346.1
0	201122	3656.1	2246.1
0	201123	3656.1	2146.1
0	201124	3656.1	2046.1
0	201125	3656.1	1946.1
0	201126	3656.1	1846.1
0	201127	3656.1	1746.1
0	201128	3656.1	1646.1
0	201129	3656.1	1546.1
0	201130	3656.1	1446.1
0	201131	3656.1	1346.1
0	201132	3656.1	1246.1
0	201133	3656.1	1146.1
0	201134	3656.1	1046.1
0	201135	3656.1	946.1
0	201136	3656.1	846.1
0	201137	3656.1	3336.1
0	201138	3656.1	3236.1
0	201139	3656.1	3136.1
0	201140	3656.1	3036.1
0	201141	3656.1	2936.1
0	201142	3656.1	2836.1
0	201143	3656.1	2736.1
0	201144	3656.1	2636.1
0	201145	3656.1	2536.1
0	201146	3656.1	2436.1
0	201147	3656.1	3336.1
0	201148	3656.1	3236.1
0	201149	3656.1	3136.1
0	201150	3656.1	3036.1
0	201151	3656.1	2936.1
0	201152	3656.1	2836.1
0	201153	3656.1	2736.1
0	201154	3656.1	2636.1
0	201155	3656.1	2536.1
0	201156	3656.1	2436.1
0	201157	3656.1	3336.1
0	201158	3656.1	3236.1
0	201159	3656.1	3136.1
0	201160	3656.1	3036.1
0	201161	3656.1	2936.1
0	201162	3656.1	2836.1
0	201163	3656.1	2736.1
0	201164	3656.1	2636.1
0	201165	3656.1	2536.1
0	201166	3656.1	2436.1
0	201167	3656.1	2336.1
0	201168	3656.1	3336.1
0	201169	3656.1	3236.1
0	201170	3656.1	3136.1
0	201171	3656.1	3036.1
0	201172	3656.1	2936.1
0	201173	3656.1	2836.1
0	201174	3656.1	2736.1
0	201175	3656.1	2636.1
0	201176	3656.1	2536.1
0	201177	3656.1	2436.1
0	201178	3656.1	2336.1
0	201179	3656.1	2236.1
0	201180	3656.1	2136.1
0	201181	3656.1	2036.1
0	201182	3656.1	1936.1
0	201183	3656.1	1836.1
0	201184	3656.1	1736.1
0	201185	3656.1	1636.1
0	201186	3656.1	1536.1
0	201187	3656.1	1436.1
0	201188	3656.1	1336.1
0	201189	3656.1	1236.1
0	201190	3656.1	1136.1
0	201191	3656.1	1036.1
0	201192	3656.1	936.1
0	201193	3656.1	836.1
0	201194	3656.1	3326.1
0	201195	3656.1	3226.1
0	201196	3656.1	3126.1
0	201197	3656.1	3026.1
0	201198	3656.1	2926.1
0	201199	3656.1	2826.1
0	201200	3656.1	2726.1
0	201201	3656.1	2626.1
0	201202	3656.1	2526.1
0	201203	3656.1	2426.1
0	201204	3656.1	3326.1
0	201205	3656.1	3226.1
0	201206	3656.1	3126.1
0	201207	3656.1	3026.1
0	201208	3656.1	2926.1
0	201209	3656.1	2826.1
0	201210	3656.1	2726.1
0	201211	3656.1	2626.1
0	201212	3656.1	2526.1
0	201213	3656.1	2426.1
0	201214	3656.1	3326.1
0	201215	3656.1	3226.1
0	201216	3656.1	3126.1
0	201217	3656.1	3026.1
0	201218	3656.1	2926.1
0	201219	3656.1	2826.1
0	201220	3656.1	2726.1
0	201221	3656.1	2626.1
0	201222	3656.1	2526.1
0	201223	3656.1	2426.1
0	201224	3656.1	2326.1
0	201225	3656.1	3326.1
0	201226	3656.1	3226.1
0	201227	3656.1	3126.1
0	201228	3656.1	3026.1
0	201229	3656.1	2926.1
0	201230	3656.1	2826.1
0	201231	3656.1	2726.1
0	201232	3656.1	2626.1
0	201233	3656.1	2526.1
0	201234	3656.1	2426.1
0	201235	3656.1	2326.1
0	201236	3656.1	2226.1
0	201237	3656.1	2126.1
0	201238	3656.1	2026.1
0	201239	3656.1	1926.1
0	201240	3656.1	1826.1
0	201241	3656.1	1726.1
0	201242	3656.1	1626.1
0	201243	3656.1	1526.1
0	201244	3656.1	1426.1
0	201245	3656.1	1326.1
0	201246	3656.1	1226.1
0	201247	3656.1	1126.1
0	201248	3656.1	1026.1
0	201249	3656.1	926.1
0	201250	3656.1	826.1
0	201251	3656.1	3316.1
0	201252	3656.1	3216.1
0	201253	3656.1	3116.1
0	201254	3656.1	3016.1
0	201255	3656.1	2916.1
0	201256	3656.1	2816.1
0	201257	3656.1	2716.1
0	201258	3656.1	2616.1
0	201259	3656.1	2516.1
0	201260	3656.1	2416.1
0	201261	3656.1	3316.1
0	201262	3656.1	3216.1
0	201263	3656.1	3116.1
0	201264	3656.1	3016.1
0	201265	3656.1	2916.1
0	201266	3656.1	2816.1
0	201267	3656.1	2716.1
0	201268	3656.1	2616.1
0	201269	3656.1	2516.1
0	201270	3656.1	2416.1
0	201271	3656.1	3316.1
0	201272	3656.1	3216.1
0	201273	3656.1	3116.1
0	201274	3656.1	3016.1
0	201275	3656.1	2916.1
0	201276	3656.1	2816.1
0	201277	3656.1	2716.1
0	201278	3656.1	2616.1
0	201279	3656.1	2516.1
0	201280	3656.1	2416.1
0	201281	3656.1	2316.1
0	201282	3656.1	3316.1
0	201283	3656.1	3216.1
0	201284	3656.1	3116.1
0	201285	3656.1	3016.1
0	201286	3656.1	2916.1
0	201287	3656.1	2816.1
0	201288	3656.1	2716.1
0	201289	3656.1	2616.1
0	201290	3656.1	2516.1
0	201291	3656.1	2416.1
0	201292	3656.1	2316.1
0	201293	3656.1	2216.1
0	201294	3656.1	2116.1
0	201295	3656.1	2016.1
0	201296	3656.1	1916.1
0	201297	3656.1	1816.1
0	201298	3656.1	1716.1
0	201299	3656.1	1616.1
0	201300	3656.1	1516.1
0	201301	3656.1	1416.1
0	201302	3656.1	1316.1
0	201303	3656.1	1216.1
0	201304	3656.1	1116.1
0	201305	3656.1	1016.1
0	201306	3656.1	916.1
0	201307	3656.1	816.1
0	201308	3656.1	3306.1
0	201309	3656.1	3206.1
0	201310	3656.1	3106.1
0	201311	3656.1	3006.1
0	201312	3656.1	2906.1
0	201313	3656.1	2806.1
0	201314	3656.1	2706.1
0	201315	3656.1	2606.1
0	201316	3656.1	2506.1
0	201317	3656.1	2406.1
0	201318	3656.1	3306.1
0	201319	3656.1	3206.1
0	201320	3656.1	3106.1
0	201321	3656.1	3006.1
0	201322	3656.1	2906.1
0	201323	3656.1	2806.1
0	201324	3656.1	2706.1
0	201325	3656.1	2606.1
0	201326	3656.1	2506.1
0	201327	3656.1	2406.1
0	201328	3656.1	3306.1
0	201329	3656.1	3206.1
0	201330	3656.1	3106.1
0	201331	3656.1	3006.1
0	201332	3656.1	2906.1
0	201333	3656.1	2806.1
0	201334	3656.1	2706.1
0	201335	3656.1	2606.1
0	201336	3656.1	2506.1
0	201337	3656.1	2406.1
0	201338	3656.1	2306.1
0	201339	3656.1	3306.1
0	201340	3656.1	3206.1
0	201341	3656.1	3106.1
0	201342	3656.1	3006.1
0	201343	3656.1	2906.1
0	201344	3656.1	2806.1
0	201345	3656.1	2706.1
0	201346	3656.1	2606.1
0	201347	3656.1	2506.1
0	201348	3656.1	2406.1
0	201349	3656.1	2306.1
0	201350	3656.1	2206.1
0	201351	3656.1	2106.1
0	201352	3656.1	2006.1
0	201353	3656.1	1906.1
0	201354	3656.1	1806.1
0	201355	3656.1	1706.1
0	201356	3656.1	1606.1
0	201357	3656.1	1506.1
0	201358	3656.1	1406.1
0	201359	3656.1	1306.1
0	201360	3656.1	1206.1
0	201361	3656.1	1106.1
0	201362	3656.1	1006.1
0	201363	3656.1	906.1
0	201364	3656.1	806.1
0	201365	3656.1	3296.1
0	201366	3656.1	3196.1
0	201367	3656.1	3096.1
0	201368	3656.1	2996.1
0	201369	3656.1	2896.1
0	201370	3656.1	2796.1
0	201371	3656.1	2696.1
0	201372	3656.1	2596.1
0	201373	3656.1	2496.1
0	201374	3656.1	2396.1
0	201375	3656.1	3296.1
0	201376	3656.1	3196.1
0	201377	3656.1	3096.1
0	201378	3656.1	2996.1
0	201379	3656.1	2896.1
0	201380	3656.1	2796.1
0	201381	3656.1	2696.1
0	201382	3656.1	2596.1
0	201383	3656.1	2496.1
0	201384	3656.1	2396.1
0	201385	3656.1	3296.1
0	201386	3656.1	3196.1
0	201387	3656.1	3096.1
0	201388	3656.1	2996.1
0	201389	3656.1	2896.1
0	201390	3656.1	2796.1
0	201391	3656.1	2696.1
0	201392	3656.1	2596.1
0	201393	3656.1	2496.1
0	201394	3656.1	2396.1
0	201395	3656.1	2296.1
0	201396	3656.1	3296.1
0	201397	3656.1	3196.1
0	201398	3656.1	3096.1
0	201399	3656.1	2996.1
0	201400	3656.1	2896.1
0	201401	3656.1	2796.1
0	201402	3656.1	2696.1
0	201403	3656.1	2596.1
0	201404	3656.1	2496.1
0	201405	3656.1	2396.1
0	201406	3656.1	2296.1
0	201407	3656.1	2196.1
0	201408	3656.1	2096.1
0	201409	3656.1	1996.1
0	201410	3656.1	1896.1
0	201411	3656.1	1796.1
0	201412	3656.1	1696.1
0	201413	3656.1	1596.1
0	201414	3656.1	1496.1
0	201415	3656.1	1396.1
0	201416	3656.1	1296.1
0	201417	3656.1	1196.1
0	201418	3656.1	1096.1
0	201419	3656.1	996.1
0	201420	3656.1	896.1
0	201421	3656.1	796.1
0	201422	3656.1	3286.1
0	201423	3656.1	3186.1
0	201424	3656.1	3086.1
0	201425	3656.1	2986.1
0	201426	3656.1	2886.1
0	201427	3656.1	2786.1
0	201428	3656.1	2686.1
0	201429	3656.1	2586.1
0	201430	3656.1	2486.1
0	201431	3656.1	2386.1
0	201432	3656.1	3286.1
0	201433	3656.1	3186.1
0	201434	3656.1	3086.1
0	201435	3656.1	2986.1
0	201436	3656.1	2886.1
0	201437	3656.1	2786.1
0	201438	3656.1	2686.1
0	201439	3656.1	2586.1
0	201440	3656.1	2486.1
0	201441	3656.1	2386.1
0	201442	3656.1	3286.1
0	201443	3656.1	3186.1
0	201444	3656.1	3086.1
0	201445	3656.1	2986.1
0	201446	3656.1	2886.1
0	201447	3656.1	2786.1
0	201448	3656.1	2686.1
0	201449	3656.1	2586.1
0	201450	3656.1	2486.1
0	201451	3656.1	2386.1
0	201452	3656.1	2286.1
0	201453	3656.1	3286.1
0	201454	3656.1	3186.1
0	201455	3656.1	3086.1
0	201456	3656.1	2986.1
0	201457	3656.1	2886.1
0	201458	3656.1	2786.1
0	201459	3656.1	2686.1
0	201460	3656.1	2586.1
0	201461	3656.1	2486.1
[...]
0	342702	4256.95	4026.95
0	342703	4256.95	4016.95
0	342704	4256.95	4006.95
0	342705	4256.95	3996.95
0	342706	4256.95	3986.95
0	342707	4256.95	3976.95
0	342708	4256.95	3966.95
0	342709	4256.95	3956.95
0	344451	4257.01	4257.01
0	344452	4257.01	4247.01
0	344453	4257.01	4237.01
0	344454	4257.01	4227.01
0	344455	4257.01	4217.01
0	344456	4257.01	4207.01
0	344457	4257.01	4197.01
0	344458	4257.01	4187.01
0	344459	4257.01	4177.01
0	344460	4257.01	4167.01
0	344461	4257.01	4157.01
0	344462	4257.01	4147.01
0	344463	4257.01	4137.01
0	344464	4257.01	4127.01
0	344465	4257.01	4117.01
0	344466	4257.01	4107.01
0	344467	4257.01	4097.01
0	344468	4257.01	4087.01
0	344469	4257.01	4077.01
0	344470	4257.01	4067.01
0	344471	4257.01	4057.01
0	344472	4257.01	4047.01
0	344473	4257.01	4037.01
0	344474	4257.01	4027.01
0	344475	4257.01	4017.01
0	344476	4257.01	4007.01
0	344477	4257.01	3997.01
0	344478	4257.01	3987.01
0	344479	4257.01	3977.01
0	344480	4257.01	3967.01
0	344481	4257.01	3957.01
0	344482	4257.01	4257.01
0	344483	4257.01	4247.01
0	344484	4257.01	4237.01
0	344485	4257.01	4227.01
0	344486	4257.01	4217.01
0	344487	4257.01	4207.01
0	344488	4257.01	4197.01
0	344489	4257.01	4187.01
0	344490	4257.01	4177.01
0	344491	4257.01	4167.01
0	344492	4257.01	4157.01
0	344493	4257.01	4147.01
0	344494	4257.01	4137.01
0	344495	4257.01	4127.01
0	344496	4257.01	4117.01
0	344497	4257.01	4107.01
0	344498	4257.01	4097.01
0	344499	4257.01	4087.01
0	344500	4257.01	4077.01
0	344501	4257.01	4067.01
0	344502	4257.01	4057.01
0	344503	4257.01	4047.01
0	344504	4257.01	4037.01
0	344505	4257.01	4027.01
0	344506	4257.01	4017.01
0	344507	4257.01	4007.01
0	344508	4257.01	3997.01
0	344509	4257.01	3987.01
0	344510	4257.01	3977.01
0	344511	4257.01	3967.01
0	344512	4257.01	3957.01
0	345917	4260.07	3950.07
0	345918	4260.07	3850.07
0	345919	4260.07	3950.07
0	345920	4260.07	3850.07
0	345921	4260.07	3950.07
0	345922	4260.07	3850.07
0	345923	4260.07	3950.07
0	345924	4260.07	3850.07
0	345925	4260.07	3750.07
0	346430	4260.13	3950.13
0	346431	4260.13	3850.13
0	346432	4260.13	3750.13
0	346433	4260.13	3650.13
0	346434	4260.13	3550.13
0	346435	4260.13	3450.13
0	346436	4260.13	3350.13
0	346437	4260.13	3250.13
0	346438	4260.13	3150.13
0	346439	4260.13	3050.13
0	346440	4260.13	2950.13
0	346441	4260.13	2850.13
0	346442	4260.13	2750.13
0	346443	4260.13	2650.13
0	346444	4260.13	2550.13
0	346445	4260.13	2450.13
0	346446	4260.13	2350.13
0	346447	4260.13	3950.13
0	346448	4260.13	3850.13
0	346449	4260.13	3750.13
0	346450	4260.13	3650.13
0	346451	4260.13	3550.13
0	346452	4260.13	3450.13
0	346453	4260.13	3350.13
0	346454	4260.13	3250.13
0	346455	4260.13	3150.13
0	346456	4260.13	3050.13
0	346457	4260.13	2950.13
0	346458	4260.13	2850.13
0	346459	4260.13	2750.13
0	346460	4260.13	2650.13
0	346461	4260.13	2550.13
0	346462	4260.13	2450.13
0	346463	4260.13	2350.13
0	346464	4260.13	2250.13
0	346780	4260.19	750.19
0	347397	4270.07	3950.07
0	347398	4270.07	3850.07
0	347399	4270.07	3950.07
0	347400	4270.07	3850.07
0	347401	4270.07	3950.07
0	347402	4270.07	3850.07
0	347403	4270.07	3950.07
0	347404	4270.07	3850.07
0	347405	4270.07	3750.07
0	347917	4270.13	3950.13
0	347918	4270.13	3850.13
0	347919	4270.13	3750.13
0	347920	4270.13	3650.13
0	347921	4270.13	3550.13
0	347922	4270.13	3450.13
0	347923	4270.13	3350.13
0	347924	4270.13	3250.13
0	347925	4270.13	3150.13
0	347926	4270.13	3050.13
0	347927	4270.13	2950.13
0	347928	4270.13	2850.13
0	347929	4270.13	2750.13
0	347930	4270.13	2650.13
0	347931	4270.13	2550.13
0	347932	4270.13	2450.13
0	347933	4270.13	2350.13
0	347934	4270.13	3950.13
0	347935	4270.13	3850.13
0	347936	4270.13	3750.13
0	347937	4270.13	3650.13
0	347938	4270.13	3550.13
0	347939	4270.13	3450.13
0	347940	4270.13	3350.13
0	347941	4270.13	3250.13
0	347942	4270.13	3150.13
0	347943	4270.13	3050.13
0	347944	4270.13	2950.13
0	347945	4270.13	2850.13
0	347946	4270.13	2750.13
0	347947	4270.13	2650.13
0	347948	4270.13	2550.13
0	347949	4270.13	2450.13
0	347950	4270.13	2350.13
0	347951	4270.13	2250.13
0	348267	4270.19	750.19
0	348884	4280.07	3950.07
0	348885	4280.07	3850.07
0	348886	4280.07	3950.07
0	348887	4280.07	3850.07
0	348888	4280.07	3950.07
0	348889	4280.07	3850.07
0	348890	4280.07	3950.07
0	348891	4280.07	3850.07
0	348892	4280.07	3750.07
0	349404	4280.13	3950.13
0	349405	4280.13	3850.13
0	349406	4280.13	3750.13
0	349407	4280.13	3650.13
0	349408	4280.13	3550.13
0	349409	4280.13	3450.13
0	349410	4280.13	3350.13
0	349411	4280.13	3250.13
0	349412	4280.13	3150.13
0	349413	4280.13	3050.13
0	349414	4280.13	2950.13
0	349415	4280.13	2850.13
0	349416	4280.13	2750.13
0	349417	4280.13	2650.13
0	349418	4280.13	2550.13
0	349419	4280.13	2450.13
0	349420	4280.13	2350.13
0	349421	4280.13	3950.13
0	349422	4280.13	3850.13
0	349423	4280.13	3750.13
0	349424	4280.13	3650.13
0	349425	4280.13	3550.13
0	349426	4280.13	3450.13
0	349427	4280.13	3350.13
0	349428	4280.13	3250.13
0	349429	4280.13	3150.13
0	349430	4280.13	3050.13
0	349431	4280.13	2950.13
0	349432	4280.13	2850.13
0	349433	4280.13	2750.13
0	349434	4280.13	2650.13
0	349435	4280.13	2550.13
0	349436	4280.13	2450.13
0	349437	4280.13	2350.13
0	349438	4280.13	2250.13
0	349754	4280.19	750.19
0	360788	4290.07	3940.07
0	360789	4290.07	3840.07
0	360790	4290.07	3740.07
0	360791	4290.07	3640.07
0	360792	4290.07	3540.07
0	360793	4290.07	3440.07
0	360794	4290.07	3340.07
0	360795	4290.07	3240.07
0	360796	4290.07	3140.07
0	360797	4290.07	3040.07
0	360798	4290.07	2940.07
0	360799	4290.07	2840.07
0	360800	4290.07	2740.07
0	360801	4290.07	2640.07
0	360802	4290.07	2540.07
0	360803	4290.07	2440.07
0	360804	4290.07	2340.07
0	360805	4290.07	2240.07
0	360806	4290.07	2140.07
0	360807	4290.07	2040.07
0	360808	4290.07	1940.07
0	360809	4290.07	1840.07
0	360810	4290.07	1740.07
0	360811	4290.07	1640.07
0	360812	4290.07	1540.07
0	360813	4290.07	1440.07
0	360814	4290.07	1340.07
0	360815	4290.07	3930.07
0	360816	4290.07	3830.07
0	360817	4290.07	3730.07
0	360818	4290.07	3630.07
0	360819	4290.07	3530.07
0	360820	4290.07	3430.07
0	360821	4290.07	3330.07
0	360822	4290.07	3230.07
0	360823	4290.07	3130.07
0	360824	4290.07	3030.07
0	360825	4290.07	2930.07
0	360826	4290.07	2830.07
0	360827	4290.07	2730.07
0	360828	4290.07	2630.07
0	360829	4290.07	2530.07
0	360830	4290.07	2430.07
0	360831	4290.07	2330.07
0	360832	4290.07	2230.07
0	360833	4290.07	2130.07
0	360834	4290.07	2030.07
0	360835	4290.07	1930.07
0	360836	4290.07	1830.07
0	360837	4290.07	1730.07
0	360838	4290.07	1630.07
0	360839	4290.07	1530.07
0	360840	4290.07	1430.07
0	360841	4290.07	1330.07
0	360842	4290.07	3920.07
0	360843	4290.07	3820.07
0	360844	4290.07	3720.07
0	360845	4290.07	3620.07
0	360846	4290.07	3520.07
0	360847	4290.07	3420.07
0	360848	4290.07	3320.07
0	360849	4290.07	3220.07
0	360850	4290.07	3120.07
0	360851	4290.07	3020.07
0	360852	4290.07	2920.07
0	360853	4290.07	2820.07
0	360854	4290.07	2720.07
0	360855	4290.07	2620.07
0	360856	4290.07	2520.07
0	360857	4290.07	2420.07
0	360858	4290.07	2320.07
0	360859	4290.07	2220.07
0	360860	4290.07	2120.07
0	360861	4290.07	2020.07
0	360862	4290.07	1920.07
0	360863	4290.07	1820.07
0	360864	4290.07	1720.07
0	360865	4290.07	1620.07
0	360866	4290.07	1520.07
0	360867	4290.07	1420.07
0	360868	4290.07	1320.07
0	360869	4290.07	3910.07
0	360870	4290.07	3810.07
0	360871	4290.07	3710.07
0	360872	4290.07	3610.07
0	360873	4290.07	3510.07
0	360874	4290.07	3410.07
0	360875	4290.07	3310.07
0	360876	4290.07	3210.07
0	360877	4290.07	3110.07
0	360878	4290.07	3010.07
0	360879	4290.07	2910.07
0	360880	4290.07	2810.07
0	360881	4290.07	2710.07
0	360882	4290.07	2610.07
0	360883	4290.07	2510.07
0	360884	4290.07	2410.07
0	360885	4290.07	2310.07
0	360886	4290.07	2210.07
0	360887	4290.07	2110.07
0	360888	4290.07	2010.07
0	360889	4290.07	1910.07
0	360890	4290.07	1810.07
0	360891	4290.07	1710.07
0	360892	4290.07	1610.07
0	360893	4290.07	1510.07
0	360894	4290.07	1410.07
0	360895	4290.07	1310.07
0	360896	4290.07	3900.07
0	360897	4290.07	3800.07
0	360898	4290.07	3700.07
0	360899	4290.07	3600.07
0	360900	4290.07	3500.07
0	360901	4290.07	3400.07
0	360902	4290.07	3300.07
0	360903	4290.07	3200.07
0	360904	4290.07	3100.07
0	360905	4290.07	3000.07
0	360906	4290.07	2900.07
0	360907	4290.07	2800.07
0	360908	4290.07	2700.07
0	360909	4290.07	2600.07
0	360910	4290.07	2500.07
0	360911	4290.07	2400.07
0	360912	4290.07	2300.07
0	360913	4290.07	2200.07
0	360914	4290.07	2100.07
0	360915	4290.07	2000.07
0	360916	4290.07	1900.07
0	360917	4290.07	1800.07
0	360918	4290.07	1700.07
0	360919	4290.07	1600.07
0	360920	4290.07	1500.07
0	360921	4290.07	1400.07
0	360922	4290.07	1300.07
0	360923	4290.07	3890.07
0	360924	4290.07	3790.07
0	360925	4290.07	3690.07
0	360926	4290.07	3590.07
0	360927	4290.07	3490.07
0	360928	4290.07	3390.07
0	360929	4290.07	3290.07
0	360930	4290.07	3190.07
0	360931	4290.07	3090.07
0	360932	4290.07	2990.07
0	360933	4290.07	2890.07
0	360934	4290.07	2790.07
0	360935	4290.07	2690.07
0	360936	4290.07	2590.07
0	360937	4290.07	2490.07
0	360938	4290.07	2390.07
0	360939	4290.07	2290.07
0	360940	4290.07	2190.07
0	360941	4290.07	2090.07
0	360942	4290.07	1990.07
0	360943	4290.07	1890.07
0	360944	4290.07	1790.07
0	360945	4290.07	1690.07
0	360946	4290.07	1590.07
0	360947	4290.07	1490.07
0	360948	4290.07	1390.07
0	360949	4290.07	1290.07
0	360950	4290.07	4290.07
0	360951	4290.07	4280.07
0	360952	4290.07	4270.07
0	360953	4290.07	4260.07
0	360954	4290.07	4250.07
0	360955	4290.07	4240.07
0	360956	4290.07	4230.07
0	360957	4290.07	4220.07
0	360958	4290.07	4210.07
0	360959	4290.07	4200.07
0	360960	4290.07	4190.07
0	360961	4290.07	4180.07
0	360962	4290.07	4170.07
0	360963	4290.07	4160.07
0	360964	4290.07	4150.07
0	360965	4290.07	4140.07
0	360966	4290.07	4130.07
0	360967	4290.07	4120.07
0	360968	4290.07	4110.07
0	360969	4290.07	4100.07
0	360970	4290.07	4090.07
0	360971	4290.07	4080.07
0	360972	4290.07	4070.07
0	360973	4290.07	4060.07
0	360974	4290.07	4050.07
0	360975	4290.07	4040.07
0	360976	4290.07	4030.07
0	360977	4290.07	4020.07
0	360978	4290.07	4010.07
0	360979	4290.07	4000.07
0	360980	4290.07	3990.07
0	360981	4290.07	3980.07
0	360982	4290.07	3880.07
0	360983	4290.07	3780.07
0	360984	4290.07	3680.07
0	360985	4290.07	3580.07
0	360986	4290.07	3480.07
0	360987	4290.07	3380.07
0	360988	4290.07	3280.07
0	360989	4290.07	3180.07
0	360990	4290.07	3080.07
0	360991	4290.07	2980.07
0	360992	4290.07	2880.07
0	360993	4290.07	2780.07
0	360994	4290.07	2680.07
0	360995	4290.07	2580.07
0	360996	4290.07	2480.07
0	360997	4290.07	2380.07
0	360998	4290.07	2280.07
0	360999	4290.07	2180.07
0	361000	4290.07	2080.07
0	361001	4290.07	1980.07
0	361002	4290.07	1880.07
0	361003	4290.07	1780.07
0	361004	4290.07	1680.07
0	361005	4290.07	1580.07
0	361006	4290.07	1480.07
0	361007	4290.07	1380.07
0	361008	4290.07	1280.07
0	361009	4290.07	3970.07
0	361010	4290.07	3870.07
0	361011	4290.07	3770.07
0	361012	4290.07	3670.07
0	361013	4290.07	3570.07
0	361014	4290.07	3470.07
0	361015	4290.07	3370.07
0	361016	4290.07	3270.07
0	361017	4290.07	3170.07
0	361018	4290.07	3070.07
0	361019	4290.07	2970.07
0	361020	4290.07	2870.07
0	361021	4290.07	2770.07
0	361022	4290.07	2670.07
0	361023	4290.07	2570.07
0	361024	4290.07	2470.07
0	361025	4290.07	2370.07
0	361026	4290.07	2270.07
0	361027	4290.07	2170.07
0	361028	4290.07	2070.07
0	361029	4290.07	1970.07
0	361030	4290.07	1870.07
0	361031	4290.07	1770.07
0	361032	4290.07	1670.07
0	361033	4290.07	1570.07
0	361034	4290.07	1470.07
0	361035	4290.07	1370.07
0	361036	4290.07	1270.07
0	361037	4290.07	3960.07
0	361038	4290.07	3860.07
0	361039	4290.07	3760.07
0	361040	4290.07	3660.07
0	361041	4290.07	3560.07
0	361042	4290.07	3460.07
0	361043	4290.07	3360.07
0	361044	4290.07	3260.07
0	361045	4290.07	3160.07
0	361046	4290.07	3060.07
0	361047	4290.07	2960.07
0	361048	4290.07	2860.07
0	361049	4290.07	2760.07
0	361050	4290.07	2660.07
0	361051	4290.07	2560.07
0	361052	4290.07	2460.07
0	361053	4290.07	2360.07
0	361054	4290.07	2260.07
0	361055	4290.07	2160.07
0	361056	4290.07	2060.07
0	361057	4290.07	1960.07
0	361058	4290.07	1860.07
0	361059	4290.07	1760.07
0	361060	4290.07	1660.07
0	361061	4290.07	1560.07
0	361062	4290.07	1460.07
0	361063	4290.07	1360.07
0	361064	4290.07	1260.07
0	361065	4290.07	3950.07
0	361066	4290.07	3850.07
0	361067	4290.07	3750.07
0	361068	4290.07	3650.07
0	361069	4290.07	3550.07
0	361070	4290.07	3450.07
0	361071	4290.07	3350.07
0	361072	4290.07	3250.07
0	361073	4290.07	3150.07
0	361074	4290.07	3050.07
0	361075	4290.07	2950.07
0	361076	4290.07	2850.07
0	361077	4290.07	2750.07
0	361078	4290.07	2650.07
0	361079	4290.07	2550.07
0	361080	4290.07	2450.07
0	361081	4290.07	2350.07
0	361082	4290.07	2250.07
0	361083	4290.07	2150.07
0	361084	4290.07	2050.07
0	361085	4290.07	1950.07
0	361086	4290.07	1850.07
0	361087	4290.07	1750.07
0	361088	4290.07	1650.07
0	361089	4290.07	1550.07
0	361090	4290.07	1450.07
0	361091	4290.07	1350.07
0	361092	4290.07	1250.07
0	361093	4290.07	1240.07
0	361094	4290.07	1230.07
0	361095	4290.07	1220.07
0	361096	4290.07	1210.07
0	361097	4290.07	1200.07
0	361098	4290.07	1190.07
0	361099	4290.07	1180.07
0	361100	4290.07	1170.07
0	361101	4290.07	1160.07
0	361102	4290.07	1150.07
0	361103	4290.07	1140.07
0	361104	4290.07	1130.07
0	361105	4290.07	1120.07
0	361106	4290.07	1110.07
0	361107	4290.07	1100.07
0	361108	4290.07	1090.07
0	361109	4290.07	1080.07
0	361110	4290.07	1070.07
0	361111	4290.07	1060.07
0	361112	4290.07	1050.07
0	361113	4290.07	1040.07
0	361114	4290.07	1030.07
0	361115	4290.07	1020.07
0	361116	4290.07	1010.07
0	361117	4290.07	1000.07
0	361118	4290.07	990.07
0	361119	4290.07	980.07
0	361120	4290.07	970.07
0	361121	4290.07	960.07
0	361122	4290.07	950.07
0	361123	4290.07	940.07
0	361124	4290.07	930.07
0	361125	4290.07	920.07
0	361126	4290.07	910.07
0	361127	4290.07	900.07
0	361128	4290.07	890.07
0	361129	4290.07	880.07
0	361130	4290.07	870.07
0	361131	4290.07	860.07
0	361132	4290.07	3950.07
0	361133	4290.07	3850.07
0	361134	4290.07	3950.07
0	361135	4290.07	3850.07
0	361136	4290.07	3950.07
0	361137	4290.07	3850.07
0	361138	4290.07	3950.07
0	361139	4290.07	3850.07
0	361140	4290.07	3750.07
0	364936	4290.13	3950.13
0	364937	4290.13	3850.13
0	364938	4290.13	3750.13
0	364939	4290.13	3650.13
0	364940	4290.13	3550.13
0	364941	4290.13	3450.13
0	364942	4290.13	3350.13
0	364943	4290.13	3250.13
0	364944	4290.13	3150.13
0	364945	4290.13	3050.13
0	364946	4290.13	2950.13
0	364947	4290.13	2850.13
0	364948	4290.13	2750.13
0	364949	4290.13	2650.13
0	364950	4290.13	2550.13
0	364951	4290.13	2450.13
0	364952	4290.13	2350.13
0	364953	4290.13	3950.13
0	364954	4290.13	3850.13
0	364955	4290.13	3750.13
0	364956	4290.13	3650.13
0	364957	4290.13	3550.13
0	364958	4290.13	3450.13
0	364959	4290.13	3350.13
0	364960	4290.13	3250.13
0	364961	4290.13	3150.13
0	364962	4290.13	3050.13
0	364963	4290.13	2950.13
0	364964	4290.13	2850.13
0	364965	4290.13	2750.13
0	364966	4290.13	2650.13
0	364967	4290.13	2550.13
0	364968	4290.13	2450.13
0	364969	4290.13	2350.13
0	364970	4290.13	3950.13
0	364971	4290.13	3850.13
0	364972	4290.13	3750.13
0	364973	4290.13	3650.13
0	364974	4290.13	3550.13
0	364975	4290.13	3450.13
0	364976	4290.13	3350.13
0	364977	4290.13	3250.13
0	364978	4290.13	3150.13
0	364979	4290.13	3050.13
0	364980	4290.13	2950.13
0	364981	4290.13	2850.13
0	364982	4290.13	2750.13
0	364983	4290.13	2650.13
0	364984	4290.13	2550.13
0	364985	4290.13	2450.13
0	364986	4290.13	2350.13
0	364987	4290.13	3950.13
0	364988	4290.13	3850.13
0	364989	4290.13	3750.13
0	364990	4290.13	3650.13
0	364991	4290.13	3550.13
0	364992	4290.13	3450.13
0	364993	4290.13	3350.13
0	364994	4290.13	3250.13
0	364995	4290.13	3150.13
0	364996	4290.13	3050.13
0	364997	4290.13	2950.13
0	364998	4290.13	2850.13
0	364999	4290.13	2750.13
0	365000	4290.13	2650.13
0	365001	4290.13	2550.13
0	365002	4290.13	2450.13
0	365003	4290.13	2350.13
0	365004	4290.13	3950.13
0	365005	4290.13	3850.13
0	365006	4290.13	3750.13
0	365007	4290.13	3650.13
0	365008	4290.13	3550.13
0	365009	4290.13	3450.13
0	365010	4290.13	3350.13
0	365011	4290.13	3250.13
0	365012	4290.13	3150.13
0	365013	4290.13	3050.13
0	365014	4290.13	2950.13
0	365015	4290.13	2850.13
0	365016	4290.13	2750.13
0	365017	4290.13	2650.13
0	365018	4290.13	2550.13
0	365019	4290.13	2450.13
0	365020	4290.13	2350.13
0	365021	4290.13	2250.13
0	366395	4290.19	850.19
0	366396	4290.19	750.19
0	367262	4300.07	3950.07
0	367263	4300.07	3850.07
0	367264	4300.07	3950.07
0	367265	4300.07	3850.07
0	367266	4300.07	3950.07
0	367267	4300.07	3850.07
0	367268	4300.07	3950.07
0	367269	4300.07	3850.07
0	367270	4300.07	3950.07
0	367271	4300.07	3850.07
0	367272	4300.07	3750.07
0	368094	4300.13	3950.13
0	368095	4300.13	3850.13
0	368096	4300.13	3750.13
0	368097	4300.13	3950.13
0	368098	4300.13	3850.13
0	368099	4300.13	3750.13
0	368100	4300.13	3950.13
0	368101	4300.13	3850.13
0	368102	4300.13	3750.13
0	368103	4300.13	3650.13
0	368104	4300.13	3550.13
0	368105	4300.13	3450.13
0	368106	4300.13	3350.13
0	368107	4300.13	3250.13
0	368108	4300.13	3150.13
0	368109	4300.13	3050.13
0	368110	4300.13	2950.13
0	368111	4300.13	2850.13
0	368112	4300.13	2750.13
0	368113	4300.13	2650.13
0	368114	4300.13	2550.13
0	368115	4300.13	2450.13
0	368116	4300.13	2350.13
0	368117	4300.13	3950.13
0	368118	4300.13	3850.13
0	368119	4300.13	3750.13
0	368120	4300.13	3650.13
0	368121	4300.13	3550.13
0	368122	4300.13	3450.13
0	368123	4300.13	3350.13
0	368124	4300.13	3250.13
0	368125	4300.13	3150.13
0	368126	4300.13	3050.13
0	368127	4300.13	2950.13
0	368128	4300.13	2850.13
0	368129	4300.13	2750.13
0	368130	4300.13	2650.13
0	368131	4300.13	2550.13
0	368132	4300.13	2450.13
0	368133	4300.13	2350.13
0	368134	4300.13	3950.13
0	368135	4300.13	3850.13
0	368136	4300.13	3750.13
0	368137	4300.13	3650.13
0	368138	4300.13	3550.13
0	368139	4300.13	3450.13
0	368140	4300.13	3350.13
0	368141	4300.13	3250.13
0	368142	4300.13	3150.13
0	368143	4300.13	3050.13
0	368144	4300.13	2950.13
0	368145	4300.13	2850.13
0	368146	4300.13	2750.13
0	368147	4300.13	2650.13
0	368148	4300.13	2550.13
0	368149	4300.13	2450.13
0	368150	4300.13	2350.13
0	368151	4300.13	2250.13
0	368659	4300.19	850.19
0	368660	4300.19	750.19
0	403474	4310.07	3950.07
0	403475	4310.07	3850.07
0	403476	4310.07	3950.07
0	403477	4310.07	3850.07
0	403478	4310.07	3950.07
0	403479	4310.07	3850.07
0	403480	4310.07	3950.07
0	403481	4310.07	3850.07
0	403482	4310.07	3950.07
0	403483	4310.07	3850.07
0	403484	4310.07	3750.07
0	404571	4310.13	3950.13
0	404572	4310.13	3850.13
0	404573	4310.13	3750.13
0	404574	4310.13	3950.13
0	404575	4310.13	3850.13
0	404576	4310.13	3750.13
0	404577	4310.13	3950.13
0	404578	4310.13	3850.13
0	404579	4310.13	3750.13
0	404580	4310.13	3650.13
0	404581	4310.13	3550.13
0	404582	4310.13	3450.13
0	404583	4310.13	3350.13
0	404584	4310.13	3250.13
0	404585	4310.13	3150.13
0	404586	4310.13	3050.13
0	404587	4310.13	2950.13
0	404588	4310.13	2850.13
0	404589	4310.13	2750.13
0	404590	4310.13	2650.13
0	404591	4310.13	2550.13
0	404592	4310.13	2450.13
0	404593	4310.13	2350.13
0	404594	4310.13	3950.13
0	404595	4310.13	3850.13
0	404596	4310.13	3750.13
0	404597	4310.13	3650.13
0	404598	4310.13	3550.13
0	404599	4310.13	3450.13
0	404600	4310.13	3350.13
0	404601	4310.13	3250.13
0	404602	4310.13	3150.13
0	404603	4310.13	3050.13
0	404604	4310.13	2950.13
0	404605	4310.13	2850.13
0	404606	4310.13	2750.13
0	404607	4310.13	2650.13
0	404608	4310.13	2550.13
0	404609	4310.13	2450.13
0	404610	4310.13	2350.13
0	404611	4310.13	3950.13
0	404612	4310.13	3850.13
0	404613	4310.13	3750.13
0	404614	4310.13	3650.13
0	404615	4310.13	3550.13
0	404616	4310.13	3450.13
0	404617	4310.13	3350.13
0	404618	4310.13	3250.13
0	404619	4310.13	3150.13
0	404620	4310.13	3050.13
0	404621	4310.13	2950.13
0	404622	4310.13	2850.13
0	404623	4310.13	2750.13
0	404624	4310.13	2650.13
0	404625	4310.13	2550.13
0	404626	4310.13	2450.13
0	404627	4310.13	2350.13
0	404628	4310.13	2250.13
0	405146	4310.19	850.19
0	405147	4310.19	750.19
0	413566	4920.09	750.09
0	413591	4930.09	750.09
0	413616	4940.09	750.09
0	413641	4950.09	750.09
0	413666	4960.09	750.09
0	413691	4970.09	750.09
0	413716	4980.09	750.09
0	413741	4990.09	750.09
0	413775	5020.09	850.09
0	413801	5030.09	850.09
0	413827	5040.09	850.09
0	413853	5050.09	850.09
0	422403	5060.09	850.09

