version 2
run General-0-20250117-13:18:24-195204
attr configname General
attr datetime 20250117-13:18:24
attr experiment General
attr inifile shaw_mine.ini
attr iterationvars ""
attr iterationvarsf ""
attr measurement ""
attr network src.dtnsim
attr processid 195204
attr repetition 0
attr replication #0
attr resultdir results
attr runnumber 0
attr seedset 0
param dtnsim.central.contactsFile "\"contactPlan/Contacts.txt\""
param dtnsim.central.contactsFile_A "\"contactPlan/Contacts.txt\""
param dtnsim.central.contactsFile_B "\"contactPlan/Contacts.txt\""
param dtnsim.central.contactIdsToDelete_from_celestialA "\"6 19 28 29 30 33 35 38 41 47 51 67 96 97 99 100 101 105 110 111 115 117 123 124 136 140 141 143 145 147 152 156 160 171 173 184 187 190 194 207 213 215 220 222 227 231 233 242 250 258 261 267 269 272 275 277 284 285 286 296 299 301 302 307 311 314 323 336 337 339 344 353 354 358 365 368 372 374 378 383 386 389 391 399 403 416 417 422 428 432 433 436 438 448 451 462 474\""
param dtnsim.central.contactIdsToDelete_from_celestialB "\"1 5 8 13 14 17 21 34 39 44 49 55 58 59 64 69 71 72 90 93 98 102 106 107 116 121 125 130 142 150 157 159 161 162 167 174 175 177 186 189 195 197 202 203 209 211 218 219 226 230 234 235 236 240 245 246 255 256 257 260 265 268 271 283 288 289 291 292 300 308 316 317 331 332 334 338 340 342 345 347 351 352 359 369 371 373 377 382 384 387 388 394 398 424 425 427 437 446 452 455 458 459 479\""
param dtnsim.central.celestialA_nodes "\"1 2 3\""
param dtnsim.central.celestialB_nodes "\"4 5 6\""
param dtnsim.central.locallyfaultsAware true
param dtnsim.central.mode_two_celestial true
param dtnsim.nodesNumber 6
param dtnsim.node[1].icon "\"receiverdish\""
param dtnsim.node[2..5].icon "\"satellite\""
param dtnsim.node[6].icon "\"receiverdish\""
param dtnsim.node[*].dtn.routing "\"cgrModel350\""
param dtnsim.node[*].dtn.routingType "\"routeListType:allPaths-firstEnding,volumeAware:allContacts,extensionBlock:on,contactPlan:global\""
param dtnsim.node[1].app.enable true
param dtnsim.node[1].app.bundlesNumber "\"8000\""
param dtnsim.node[1].app.start "\"0\""
param dtnsim.node[1].app.destinationEid "\"6\""
param dtnsim.node[1].app.size "\"1500\""
param dtnsim.node[1].app.interval 10

vector 0 dtnsim.node[6].app appBundleReceivedDelayvec:vector ETV
attr interpolationmode none
attr source appBundleReceivedDelay
attr title "appBundleReceivedDelayvec, vector"
0	73654	67644	67644
0	73660	67644	67634
0	73666	67644	67624
0	73672	67644	67614
0	73678	67644	67604
0	73684	67644	67594
0	73690	67644	67584
0	73696	67644	67574
0	73702	67644	67564
0	73708	67644	67554
0	73714	67644	67544
0	73720	67644	67534
0	73726	67644	67524
0	73732	67644	67514
0	73738	67644	67504
0	73744	67644	67494
0	73750	67644	67484
0	73756	67644	67474
0	73762	67644	67464
0	73768	67644	67454
0	73774	67644	67444
0	73780	67644	67434
0	73786	67644	67424
0	73792	67644	67414
0	73798	67644	67404
0	73804	67644	67394
0	73810	67644	67384
0	73816	67644	67374
0	73822	67644	67364
0	73828	67644	67354
0	73834	67644	67344
0	73840	67644	67334
0	73846	67644	67324
0	73852	67644	67314
0	73858	67644	67304
0	73864	67644	67294
0	73870	67644	67284
0	73876	67644	67274
0	73882	67644	67264
0	73888	67644	67254
0	73894	67644	67244
0	73900	67644	67234
0	73906	67644	67224
0	73912	67644	67214
0	73918	67644	67204
0	73924	67644	67194
0	73930	67644	67184
0	73936	67644	67174
0	73942	67644	67164
0	73948	67644	67154
0	73954	67644	67144
0	73960	67644	67134
0	73966	67644	67124
0	73972	67644	67114
0	73978	67644	67104
0	73984	67644	67094
0	73990	67644	67084
0	73996	67644	67074
0	74002	67644	67064
0	74008	67644	67054
0	74014	67644	67044
0	74020	67644	67034
0	74026	67644	67024
0	74032	67644	67014
0	74038	67644	67004
0	74044	67644	66994
0	74050	67644	66984
0	74056	67644	66974
0	74062	67644	66964
0	74068	67644	66954
0	74074	67644	66944
0	74080	67644	66934
0	74086	67644	66924
0	74092	67644	66914
0	74098	67644	66904
0	74104	67644	66894
0	74110	67644	66884
0	74116	67644	66874
0	74122	67644	66864
0	74128	67644	66854
0	74134	67644	66844
0	74140	67644	66834
0	74146	67644	66824
0	74152	67644	66814
0	74158	67644	66804
0	74164	67644	66794
0	74170	67644	66784
0	74176	67644	66774
0	74182	67644	66764
0	74188	67644	66754
0	74194	67644	66744
0	74200	67644	66734
0	74206	67644	66724
0	74212	67644	66714
0	74218	67644	66704
0	74224	67644	66694
0	74230	67644	66684
0	74236	67644	66674
0	74242	67644	66664
0	74248	67644	66654
0	74254	67644	66644
0	74260	67644	66634
0	74266	67644	66624
0	74272	67644	66614
0	74278	67644	66604
0	74284	67644	66594
0	74290	67644	66584
0	74296	67644	66574
0	74302	67644	66564
0	74308	67644	66554
0	74314	67644	66544
0	74320	67644	66534
0	74326	67644	66524
0	74332	67644	66514
0	74338	67644	66504
0	74344	67644	66494
0	74350	67644	66484
0	74356	67644	66474
0	74362	67644	66464
0	74368	67644	66454
0	74374	67644	66444
0	74380	67644	66434
0	74386	67644	66424
0	74392	67644	66414
0	74398	67644	66404
0	74404	67644	66394
0	74410	67644	66384
0	74416	67644	66374
0	74422	67644	66364
0	74428	67644	66354
0	74434	67644	66344
0	74440	67644	66334
0	74446	67644	66324
0	74452	67644	66314
0	74458	67644	66304
0	74464	67644	66294
0	74470	67644	66284
0	74476	67644	66274
0	74482	67644	66264
0	74488	67644	66254
0	74494	67644	66244
0	74500	67644	66234
0	74506	67644	66224
0	74512	67644	66214
0	74518	67644	66204
0	74524	67644	66194
0	74530	67644	66184
0	74536	67644	66174
0	74542	67644	66164
0	74548	67644	66154
0	74554	67644	66144
0	74560	67644	66134
0	74566	67644	66124
0	74572	67644	66114
0	74578	67644	66104
0	74584	67644	66094
0	74590	67644	66084
0	74596	67644	66074
0	74602	67644	66064
0	74608	67644	66054
0	74614	67644	66044
0	74620	67644	66034
0	74626	67644	66024
0	74632	67644	66014
0	74638	67644	66004
0	74644	67644	65994
0	74650	67644	65984
0	74656	67644	65974
0	74662	67644	65964
0	74668	67644	65954
0	74674	67644	65944
0	74680	67644	65934
0	74686	67644	65924
0	74692	67644	65914
0	74698	67644	65904
0	74704	67644	65894
0	74710	67644	65884
0	74716	67644	65874
0	74722	67644	65864
0	74728	67644	65854
0	74734	67644	65844
0	74740	67644	65834
0	74746	67644	65824
0	74752	67644	65814
0	74758	67644	65804
0	74764	67644	65794
0	74770	67644	65784
0	74776	67644	65774
0	74782	67644	65764
0	74788	67644	65754
0	74794	67644	65744
0	74800	67644	65734
0	74806	67644	65724
0	74812	67644	65714
0	74818	67644	65704
0	74824	67644	65694
0	74830	67644	65684
0	74836	67644	65674
0	74842	67644	65664
0	74848	67644	65654
0	74854	67644	65644
0	74860	67644	65634
0	74866	67644	65624
0	74872	67644	65614
0	74878	67644	65604
0	74884	67644	65594
0	74890	67644	65584
0	74896	67644	65574
0	74902	67644	65564
0	74908	67644	65554
0	74914	67644	65544
0	74920	67644	65534
0	74926	67644	65524
0	74932	67644	65514
0	74938	67644	65504
0	74944	67644	65494
0	74950	67644	65484
0	74956	67644	65474
0	74962	67644	65464
0	74968	67644	65454
0	74974	67644	65444
0	74980	67644	65434
0	74986	67644	65424
0	74992	67644	65414
0	74998	67644	65404
0	75004	67644	65394
0	75010	67644	65384
0	75016	67644	65374
0	75022	67644	65364
0	75028	67644	65354
0	75034	67644	65344
0	75040	67644	65334
0	75046	67644	65324
0	75052	67644	65314
0	75058	67644	65304
0	75064	67644	65294
0	75070	67644	65284
0	75076	67644	65274
0	75082	67644	65264
0	75088	67644	65254
0	75094	67644	65244
0	75100	67644	65234
0	75106	67644	65224
0	75112	67644	65214
0	75118	67644	65204
0	75124	67644	65194
0	75130	67644	65184
0	75136	67644	65174
0	75142	67644	65164
0	75148	67644	65154
0	75154	67644	65144
0	75160	67644	65134
0	75166	67644	65124
0	75172	67644	65114
0	75178	67644	65104
0	75184	67644	65094
0	75190	67644	65084
0	75196	67644	65074
0	75202	67644	65064
0	75208	67644	65054
0	75214	67644	65044
0	75220	67644	65034
0	75226	67644	65024
0	75232	67644	65014
0	75238	67644	65004
0	75244	67644	64994
0	75250	67644	64984
0	75256	67644	64974
0	75262	67644	64964
0	75268	67644	64954
0	75274	67644	64944
0	75280	67644	64934
0	75286	67644	64924
0	75292	67644	64914
0	75298	67644	64904
0	75304	67644	64894
0	75310	67644	64884
0	75316	67644	64874
0	75322	67644	64864
0	75328	67644	64854
0	75334	67644	64844
0	75340	67644	64834
0	75346	67644	64824
0	75352	67644	64814
0	75358	67644	64804
0	75364	67644	64794
0	75370	67644	64784
0	75376	67644	64774
0	75382	67644	64764
0	75388	67644	64754
0	75394	67644	64744
0	75400	67644	64734
0	75406	67644	64724
0	75412	67644	64714
0	75418	67644	64704
0	75424	67644	64694
0	75430	67644	64684
0	75436	67644	64674
0	75442	67644	64664
0	75448	67644	64654
0	75454	67644	64644
0	75460	67644	64634
0	75466	67644	64624
0	75472	67644	64614
0	75478	67644	64604
0	75484	67644	64594
0	75490	67644	64584
0	75496	67644	64574
0	75502	67644	64564
0	75508	67644	64554
0	75514	67644	64544
0	75520	67644	64534
0	75526	67644	64524
0	75532	67644	64514
0	75538	67644	64504
0	75544	67644	64494
0	75550	67644	64484
0	75556	67644	64474
0	75562	67644	64464
0	75568	67644	64454
0	75574	67644	64444
0	75580	67644	64434
0	75586	67644	64424
0	75592	67644	64414
0	75598	67644	64404
0	75604	67644	64394
0	75610	67644	64384
0	75616	67644	64374
0	75622	67644	64364
0	75628	67644	64354
0	75634	67644	64344
0	75640	67644	64334
0	75646	67644	64324
0	75652	67644	64314
0	75658	67644	64304
0	75664	67644	64294
0	75670	67644	64284
0	75676	67644	64274
0	75682	67644	64264
0	75688	67644	64254
0	75694	67644	64244
0	75700	67644	64234
0	75706	67644	64224
0	75712	67644	64214
0	75718	67644	64204
0	75724	67644	64194
0	75730	67644	64184
0	75736	67644	64174
0	75742	67644	64164
0	75748	67644	64154
0	75754	67644	64144
0	75760	67644	64134
0	75766	67644	64124
0	75772	67644	64114
0	75778	67644	64104
0	75784	67644	64094
0	75790	67644	64084
0	75796	67644	64074
0	75802	67644	64064
0	75808	67644	64054
0	75814	67644	64044
0	75820	67644	64034
0	75826	67644	64024
0	75832	67644	64014
0	75838	67644	64004
0	75844	67644	63994
0	75850	67644	63984
0	75856	67644	63974
0	75862	67644	63964
0	75868	67644	63954
0	75874	67644	63944
0	75880	67644	63934
0	75886	67644	63924
0	75892	67644	63914
0	75898	67644	63904
0	75904	67644	63894
0	75910	67644	63884
0	75916	67644	63874
0	75922	67644	63864
0	75928	67644	63854
0	75934	67644	63844
0	75940	67644	63834
0	75946	67644	63824
0	75952	67644	63814
0	75958	67644	63804
0	75964	67644	63794
0	75970	67644	63784
0	75976	67644	63774
0	75982	67644	63764
0	75988	67644	63754
0	75994	67644	63744
0	76000	67644	63734
0	76006	67644	63724
0	76012	67644	63714
0	76018	67644	63704
0	76024	67644	63694
0	76030	67644	63684
0	76036	67644	63674
0	76042	67644	63664
0	76048	67644	63654
0	76054	67644	63644
0	76060	67644	63634
0	76066	67644	63624
0	76072	67644	63614
0	76078	67644	63604
0	76084	67644	63594
0	76090	67644	63584
0	76096	67644	63574
0	76102	67644	63564
0	76108	67644	63554
0	76114	67644	63544
0	76120	67644	63534
0	76126	67644	63524
0	76132	67644	63514
0	76138	67644	63504
0	76144	67644	63494
0	76150	67644	63484
0	76156	67644	63474
0	76162	67644	63464
0	76168	67644	63454
0	76174	67644	63444
0	76180	67644	63434
0	76186	67644	63424
0	76192	67644	63414
0	76198	67644	63404
0	76204	67644	63394
0	76210	67644	63384
0	76216	67644	63374
0	76222	67644	63364
0	76228	67644	63354
0	76234	67644	63344
0	76240	67644	63334
0	76246	67644	63324
0	76252	67644	63314
0	76258	67644	63304
0	76264	67644	63294
0	76270	67644	63284
0	76276	67644	63274
0	76282	67644	63264
0	76288	67644	63254
0	76294	67644	63244
0	76300	67644	63234
0	76306	67644	63224
0	76312	67644	63214
0	76318	67644	63204
0	76324	67644	63194
0	76330	67644	63184
0	76336	67644	63174
0	76342	67644	63164
0	76348	67644	63154
0	76354	67644	63144
0	76360	67644	63134
0	76366	67644	63124
0	76372	67644	63114
0	76378	67644	63104
0	76384	67644	63094
0	76390	67644	63084
0	76396	67644	63074
0	76402	67644	63064
0	76408	67644	63054
0	76414	67644	63044
0	76420	67644	63034
0	76426	67644	63024
0	76432	67644	63014
0	76438	67644	63004
0	76444	67644	62994
0	76450	67644	62984
0	76456	67644	62974
0	76462	67644	62964
0	76468	67644	62954
0	76474	67644	62944
0	76480	67644	62934
0	76486	67644	62924
0	76492	67644	62914
0	76498	67644	62904
0	76504	67644	62894
0	76510	67644	62884
0	76516	67644	62874
0	76522	67644	62864
0	76528	67644	62854
0	76534	67644	62844
0	76540	67644	62834
0	76546	67644	62824
0	76552	67644	62814
0	76558	67644	62804
0	76564	67644	62794
0	76570	67644	62784
0	76576	67644	62774
0	76582	67644	62764
0	76588	67644	62754
0	76594	67644	62744
0	76600	67644	62734
0	76606	67644	62724
0	76612	67644	62714
0	76618	67644	62704
0	76624	67644	62694
0	76630	67644	62684
0	76636	67644	62674
0	76642	67644	62664
0	76648	67644	62654
0	76654	67644	62644
0	76660	67644	62634
0	76666	67644	62624
0	76672	67644	62614
0	76678	67644	62604
0	76684	67644	62594
0	76690	67644	62584
0	76696	67644	62574
0	76702	67644	62564
0	76708	67644	62554
0	76714	67644	62544
0	76720	67644	62534
0	76726	67644	62524
0	76732	67644	62514
0	76738	67644	62504
0	76744	67644	62494
0	76750	67644	62484
0	76756	67644	62474
0	76762	67644	62464
0	76768	67644	62454
0	76774	67644	62444
0	76780	67644	62434
0	76786	67644	62424
0	76792	67644	62414
0	76798	67644	62404
0	76804	67644	62394
0	76810	67644	62384
0	76816	67644	62374
0	76822	67644	62364
0	76828	67644	62354
0	76834	67644	62344
0	76840	67644	62334
0	76846	67644	62324
0	76852	67644	62314
0	76858	67644	62304
0	76864	67644	62294
0	76870	67644	62284
0	76876	67644	62274
0	76882	67644	62264
0	76888	67644	62254
0	76894	67644	62244
0	76900	67644	62234
0	76906	67644	62224
0	76912	67644	62214
0	76918	67644	62204
0	76924	67644	62194
0	76930	67644	62184
0	76936	67644	62174
0	76942	67644	62164
0	76948	67644	62154
0	76954	67644	62144
0	76960	67644	62134
0	76966	67644	62124
0	76972	67644	62114
0	76978	67644	62104
0	76984	67644	62094
0	76990	67644	62084
0	76996	67644	62074
0	77002	67644	62064
0	77008	67644	62054
0	77014	67644	62044
0	77020	67644	62034
0	77026	67644	62024
0	77032	67644	62014
0	77038	67644	62004
0	77044	67644	61994
0	77050	67644	61984
0	77056	67644	61974
0	77062	67644	61964
0	77068	67644	61954
0	77074	67644	61944
0	77080	67644	61934
0	77086	67644	61924
0	77092	67644	61914
0	77098	67644	61904
0	77104	67644	61894
0	77110	67644	61884
0	77116	67644	61874
0	77122	67644	61864
0	77128	67644	61854
0	77134	67644	61844
0	77140	67644	61834
0	77146	67644	61824
0	77152	67644	61814
0	77158	67644	61804
0	77164	67644	61794
0	77170	67644	61784
0	77176	67644	61774
0	77182	67644	61764
0	77188	67644	61754
0	77194	67644	61744
0	77200	67644	61734
0	77206	67644	61724
0	77212	67644	61714
0	77218	67644	61704
0	77224	67644	61694
0	77230	67644	61684
0	77236	67644	61674
0	77242	67644	61664
0	77248	67644	61654
0	77254	67644	61644
0	77260	67644	61634
0	77266	67644	61624
0	77272	67644	61614
0	77278	67644	61604
0	77284	67644	61594
0	77290	67644	61584
0	77296	67644	61574
0	77302	67644	61564
0	77308	67644	61554
0	77314	67644	61544
0	77320	67644	61534
0	77326	67644	61524
0	77332	67644	61514
0	77338	67644	61504
0	77344	67644	61494
0	77350	67644	61484
0	77356	67644	61474
0	77362	67644	61464
0	77368	67644	61454
0	77374	67644	61444
0	77380	67644	61434
0	77386	67644	61424
0	77392	67644	61414
0	77398	67644	61404
0	77404	67644	61394
0	77410	67644	61384
0	77416	67644	61374
0	77422	67644	61364
0	77428	67644	61354
0	77434	67644	61344
0	77440	67644	61334
0	77446	67644	61324
0	77452	67644	61314
0	77458	67644	61304
0	77464	67644	61294
0	77470	67644	61284
0	77476	67644	61274
0	77482	67644	61264
0	77488	67644	61254
0	77494	67644	61244
0	77500	67644	61234
0	77506	67644	61224
0	77512	67644	61214
0	77518	67644	61204
0	77524	67644	61194
0	77530	67644	61184
0	77536	67644	61174
0	77542	67644	61164
0	77548	67644	61154
0	77554	67644	61144
0	77560	67644	61134
0	77566	67644	61124
0	77572	67644	61114
0	77578	67644	61104
0	77584	67644	61094
0	77590	67644	61084
0	77596	67644	61074
0	77602	67644	61064
0	77608	67644	61054
0	77614	67644	61044
0	77620	67644	61034
0	77626	67644	61024
0	77632	67644	61014
0	77638	67644	61004
0	77644	67644	60994
0	77650	67644	60984
0	77656	67644	60974
0	77662	67644	60964
0	77668	67644	60954
0	77674	67644	60944
0	77680	67644	60934
0	77686	67644	60924
0	77692	67644	60914
0	77698	67644	60904
0	77704	67644	60894
0	77710	67644	60884
0	77716	67644	60874
0	77722	67644	60864
0	77728	67644	60854
0	77734	67644	60844
0	77740	67644	60834
0	77746	67644	60824
0	77752	67644	60814
0	77758	67644	60804
0	77764	67644	60794
0	77770	67644	60784
0	77776	67644	60774
0	77782	67644	60764
0	77788	67644	60754
0	77794	67644	60744
0	77800	67644	60734
0	77806	67644	60724
0	77812	67644	60714
0	77818	67644	60704
0	77824	67644	60694
0	77830	67644	60684
0	77836	67644	60674
0	77842	67644	60664
0	77848	67644	60654
0	77854	67644	60644
0	77860	67644	60634
0	77866	67644	60624
0	77872	67644	60614
0	77878	67644	60604
0	77884	67644	60594
0	77890	67644	60584
0	77896	67644	60574
0	77902	67644	60564
0	77908	67644	60554
0	77914	67644	60544
0	77920	67644	60534
0	77926	67644	60524
0	77932	67644	60514
0	77938	67644	60504
0	77944	67644	60494
0	77950	67644	60484
0	77956	67644	60474
0	77962	67644	60464
0	77968	67644	60454
0	77974	67644	60444
0	77980	67644	60434
0	77986	67644	60424
0	77992	67644	60414
0	77998	67644	60404
0	78004	67644	60394
0	78010	67644	60384
0	78016	67644	60374
0	78022	67644	60364
0	78028	67644	60354
0	78034	67644	60344
0	78040	67644	60334
0	78046	67644	60324
0	78052	67644	60314
0	78058	67644	60304
0	78064	67644	60294
0	78070	67644	60284
0	78076	67644	60274
0	78082	67644	60264
0	78088	67644	60254
0	78094	67644	60244
0	78100	67644	60234
0	78106	67644	60224
0	78112	67644	60214
0	78118	67644	60204
0	78124	67644	60194
0	78130	67644	60184
0	78136	67644	60174
0	78142	67644	60164
0	78148	67644	60154
0	78154	67644	60144
0	78160	67644	60134
0	78166	67644	60124
0	78172	67644	60114
0	78178	67644	60104
0	78184	67644	60094
0	78190	67644	60084
0	78196	67644	60074
0	78202	67644	60064
0	78208	67644	60054
0	78214	67644	60044
0	78220	67644	60034
0	78226	67644	60024
0	78232	67644	60014
0	78238	67644	60004
0	78244	67644	59994
0	78250	67644	59984
0	78256	67644	59974
0	78262	67644	59964
0	78268	67644	59954
0	78274	67644	59944
0	78280	67644	59934
0	78286	67644	59924
0	78292	67644	59914
0	78298	67644	59904
0	78304	67644	59894
0	78310	67644	59884
0	78316	67644	59874
0	78322	67644	59864
0	78328	67644	59854
0	78334	67644	59844
0	78340	67644	59834
0	78346	67644	59824
0	78352	67644	59814
0	78358	67644	59804
0	78364	67644	59794
0	78370	67644	59784
0	78376	67644	59774
0	78382	67644	59764
0	78388	67644	59754
0	78394	67644	59744
0	78400	67644	59734
0	78406	67644	59724
0	78412	67644	59714
0	78418	67644	59704
0	78424	67644	59694
0	78430	67644	59684
0	78436	67644	59674
0	78442	67644	59664
0	78448	67644	59654
0	78454	67644	59644
0	78460	67644	59634
0	78466	67644	59624
0	78472	67644	59614
0	78478	67644	59604
0	78484	67644	59594
0	78490	67644	59584
0	78496	67644	59574
0	78502	67644	59564
0	78508	67644	59554
0	78514	67644	59544
0	78520	67644	59534
0	78526	67644	59524
0	78532	67644	59514
0	78538	67644	59504
0	78544	67644	59494
0	78550	67644	59484
0	78556	67644	59474
0	78562	67644	59464
0	78568	67644	59454
0	78574	67644	59444
0	78580	67644	59434
0	78586	67644	59424
0	78592	67644	59414
0	78598	67644	59404
0	78604	67644	59394
0	78610	67644	59384
0	78616	67644	59374
0	78622	67644	59364
0	78628	67644	59354
0	78634	67644	59344
0	78640	67644	59334
0	78646	67644	59324
0	78652	67644	59314
0	78658	67644	59304
0	78664	67644	59294
0	78670	67644	59284
0	78676	67644	59274
0	78682	67644	59264
0	78688	67644	59254
0	78694	67644	59244
0	78700	67644	59234
0	78706	67644	59224
0	78712	67644	59214
0	78718	67644	59204
0	78724	67644	59194
0	78730	67644	59184
0	78736	67644	59174
0	78742	67644	59164
0	78748	67644	59154
0	78754	67644	59144
0	78760	67644	59134
0	78766	67644	59124
0	78772	67644	59114
0	78778	67644	59104
0	78784	67644	59094
0	78790	67644	59084
0	78796	67644	59074
0	78802	67644	59064
0	78808	67644	59054
0	78814	67644	59044
0	78820	67644	59034
0	78826	67644	59024
0	78832	67644	59014
0	78838	67644	59004
0	78844	67644	58994
0	78850	67644	58984
0	78856	67644	58974
0	78862	67644	58964
0	78868	67644	58954
0	78874	67644	58944
0	78880	67644	58934
0	78886	67644	58924
0	78892	67644	58914
0	78898	67644	58904
0	78904	67644	58894
0	78910	67644	58884
0	78916	67644	58874
0	78922	67644	58864
0	78928	67644	58854
0	78934	67644	58844
0	78940	67644	58834
0	78946	67644	58824
0	78952	67644	58814
0	78958	67644	58804
0	78964	67644	58794
0	78970	67644	58784
0	78976	67644	58774
0	78982	67644	58764
0	78988	67644	58754
0	78994	67644	58744
0	79000	67644	58734
0	79006	67644	58724
0	79012	67644	58714
0	79018	67644	58704
0	79024	67644	58694
0	79030	67644	58684
0	79036	67644	58674
0	79042	67644	58664
0	79048	67644	58654
0	79054	67644	58644
0	79060	67644	58634
0	79066	67644	58624
0	79072	67644	58614
0	79078	67644	58604
0	79084	67644	58594
0	79090	67644	58584
0	79096	67644	58574
0	79102	67644	58564
0	79108	67644	58554
0	79114	67644	58544
0	79120	67644	58534
0	79126	67644	58524
0	79132	67644	58514
0	79138	67644	58504
0	79144	67644	58494
0	79150	67644	58484
0	79156	67644	58474
0	79162	67644	58464
0	79168	67644	58454
0	79174	67644	58444
0	79180	67644	58434
0	79186	67644	58424
0	79192	67644	58414
0	79198	67644	58404
0	79204	67644	58394
0	79210	67644	58384
0	79216	67644	58374
0	79222	67644	58364
0	79228	67644	58354
0	79234	67644	58344
0	79240	67644	58334
0	79246	67644	58324
0	79252	67644	58314
0	79258	67644	58304
0	79264	67644	58294
0	79270	67644	58284
0	79276	67644	58274
0	79282	67644	58264
0	79288	67644	58254
0	79294	67644	58244
0	79300	67644	58234
0	79306	67644	58224
0	79312	67644	58214
0	79318	67644	58204
0	79324	67644	58194
0	79330	67644	58184
0	79336	67644	58174
0	79342	67644	58164
0	79348	67644	58154
0	79354	67644	58144
0	79360	67644	58134
0	79366	67644	58124
0	79372	67644	58114
0	79378	67644	58104
0	79384	67644	58094
0	79390	67644	58084
0	79396	67644	58074
0	79402	67644	58064
0	79408	67644	58054
0	79414	67644	58044
0	79420	67644	58034
0	79426	67644	58024
0	79432	67644	58014
0	79438	67644	58004
0	79444	67644	57994
0	79450	67644	57984
0	79456	67644	57974
0	79462	67644	57964
0	79468	67644	57954
0	79474	67644	57944
0	79480	67644	57934
0	79486	67644	57924
0	79492	67644	57914
0	79498	67644	57904
0	79504	67644	57894
0	79510	67644	57884
0	79516	67644	57874
0	79522	67644	57864
0	79528	67644	57854
0	79534	67644	57844
0	79540	67644	57834
0	79546	67644	57824
0	79552	67644	57814
0	79558	67644	57804
0	79564	67644	57794
0	79570	67644	57784
0	79576	67644	57774
0	79582	67644	57764
0	79588	67644	57754
0	79594	67644	57744
0	79600	67644	57734
0	79606	67644	57724
0	79612	67644	57714
0	79618	67644	57704
0	79624	67644	57694
0	79630	67644	57684
0	79636	67644	57674
0	79642	67644	57664
0	79648	67644	57654
0	79654	67644	57644
0	79660	67644	57634
0	79666	67644	57624
0	79672	67644	57614
0	79678	67644	57604
0	79684	67644	57594
0	79690	67644	57584
0	79696	67644	57574
0	79702	67644	57564
0	79708	67644	57554
0	79714	67644	57544
0	79720	67644	57534
0	79726	67644	57524
0	79732	67644	57514
0	79738	67644	57504
0	79744	67644	57494
0	79750	67644	57484
0	79756	67644	57474
0	79762	67644	57464
0	79768	67644	57454
0	79774	67644	57444
0	79780	67644	57434
0	79786	67644	57424
0	79792	67644	57414
0	79798	67644	57404
0	79804	67644	57394
0	79810	67644	57384
0	79816	67644	57374
0	79822	67644	57364
0	79828	67644	57354
0	79834	67644	57344
0	79840	67644	57334
0	79846	67644	57324
0	79852	67644	57314
0	79858	67644	57304
0	79864	67644	57294
0	79870	67644	57284
0	79876	67644	57274
0	79882	67644	57264
0	79888	67644	57254
0	79894	67644	57244
0	79900	67644	57234
0	79906	67644	57224
0	79912	67644	57214
0	79918	67644	57204
0	79924	67644	57194
0	79930	67644	57184
0	79936	67644	57174
0	79942	67644	57164
0	79948	67644	57154
0	79954	67644	57144
0	79960	67644	57134
0	79966	67644	57124
0	79972	67644	57114
0	79978	67644	57104
0	79984	67644	57094
0	79990	67644	57084
0	79996	67644	57074
0	80002	67644	57064
0	80008	67644	57054
0	80014	67644	57044
0	80020	67644	57034
0	80026	67644	57024
0	80032	67644	57014
0	80038	67644	57004
0	80044	67644	56994
0	80050	67644	56984
0	80056	67644	56974
0	80062	67644	56964
0	80068	67644	56954
0	80074	67644	56944
0	80080	67644	56934
0	80086	67644	56924
0	80092	67644	56914
0	80098	67644	56904
0	80104	67644	56894
0	80110	67644	56884
0	80116	67644	56874
0	80122	67644	56864
0	80128	67644	56854
0	80134	67644	56844
0	80140	67644	56834
0	80146	67644	56824
0	80152	67644	56814
0	80158	67644	56804
0	80164	67644	56794
0	80170	67644	56784
0	80176	67644	56774
0	80182	67644	56764
0	80188	67644	56754
0	80194	67644	56744
0	80200	67644	56734
0	80206	67644	56724
0	80212	67644	56714
0	80218	67644	56704
0	80224	67644	56694
0	80230	67644	56684
0	80236	67644	56674
0	80242	67644	56664
0	80248	67644	56654
0	80254	67644	56644
0	80260	67644	56634
0	80266	67644	56624
0	80272	67644	56614
0	80278	67644	56604
0	80284	67644	56594
0	80290	67644	56584
0	80296	67644	56574
0	80302	67644	56564
0	80308	67644	56554
0	80314	67644	56544
0	80320	67644	56534
0	80326	67644	56524
0	80332	67644	56514
0	80338	67644	56504
0	80344	67644	56494
0	80350	67644	56484
0	80356	67644	56474
0	80362	67644	56464
0	80368	67644	56454
0	80374	67644	56444
0	80380	67644	56434
0	80386	67644	56424
0	80392	67644	56414
0	80398	67644	56404
0	80404	67644	56394
0	80410	67644	56384
0	80416	67644	56374
0	80422	67644	56364
0	80428	67644	56354
0	80434	67644	56344
0	80440	67644	56334
0	80446	67644	56324
0	80452	67644	56314
0	80458	67644	56304
0	80464	67644	56294
0	80470	67644	56284
0	80476	67644	56274
0	80482	67644	56264
0	80488	67644	56254
0	80494	67644	56244
0	80500	67644	56234
0	80506	67644	56224
0	80512	67644	56214
0	80518	67644	56204
0	80524	67644	56194
0	80530	67644	56184
0	80536	67644	56174
0	80542	67644	56164
0	80548	67644	56154
0	80554	67644	56144
0	80560	67644	56134
0	80566	67644	56124
0	80572	67644	56114
0	80578	67644	56104
0	80584	67644	56094
0	80590	67644	56084
0	80596	67644	56074
0	80602	67644	56064
0	80608	67644	56054
0	80614	67644	56044
0	80620	67644	56034
0	80626	67644	56024
0	80632	67644	56014
0	80638	67644	56004
0	80644	67644	55994
0	80650	67644	55984
0	80656	67644	55974
0	80662	67644	55964
0	80668	67644	55954
0	80674	67644	55944
0	80680	67644	55934
0	80686	67644	55924
0	80692	67644	55914
0	80698	67644	55904
0	80704	67644	55894
0	80710	67644	55884
0	80716	67644	55874
0	80722	67644	55864
0	80728	67644	55854
0	80734	67644	55844
0	80740	67644	55834
0	80746	67644	55824
0	80752	67644	55814
0	80758	67644	55804
0	80764	67644	55794
0	80770	67644	55784
0	80776	67644	55774
0	80782	67644	55764
0	80788	67644	55754
0	80794	67644	55744
0	80800	67644	55734
0	80806	67644	55724
0	80812	67644	55714
0	80818	67644	55704
0	80824	67644	55694
0	80830	67644	55684
0	80836	67644	55674
0	80842	67644	55664
0	80848	67644	55654
0	80854	67644	55644
0	80860	67644	55634
0	80866	67644	55624
0	80872	67644	55614
0	80878	67644	55604
0	80884	67644	55594
0	80890	67644	55584
0	80896	67644	55574
0	80902	67644	55564
0	80908	67644	55554
0	80914	67644	55544
0	80920	67644	55534
0	80926	67644	55524
0	80932	67644	55514
0	80938	67644	55504
0	80944	67644	55494
0	80950	67644	55484
0	80956	67644	55474
0	80962	67644	55464
0	80968	67644	55454
0	80974	67644	55444
0	80980	67644	55434
0	80986	67644	55424
0	80992	67644	55414
0	80998	67644	55404
0	81004	67644	55394
0	81010	67644	55384
0	81016	67644	55374
0	81022	67644	55364
0	81028	67644	55354
0	81034	67644	55344
0	81040	67644	55334
0	81046	67644	55324
0	81052	67644	55314
0	81058	67644	55304
0	81064	67644	55294
0	81070	67644	55284
0	81076	67644	55274
0	81082	67644	55264
0	81088	67644	55254
0	81094	67644	55244
0	81100	67644	55234
0	81106	67644	55224
0	81112	67644	55214
0	81118	67644	55204
0	81124	67644	55194
0	81130	67644	55184
0	81136	67644	55174
0	81142	67644	55164
0	81148	67644	55154
0	81154	67644	55144
0	81160	67644	55134
0	81166	67644	55124
0	81172	67644	55114
0	81178	67644	55104
0	81184	67644	55094
0	81190	67644	55084
0	81196	67644	55074
0	81202	67644	55064
0	81208	67644	55054
0	81214	67644	55044
0	81220	67644	55034
0	81226	67644	55024
0	81232	67644	55014
0	81238	67644	55004
0	81244	67644	54994
0	81250	67644	54984
0	81256	67644	54974
0	81262	67644	54964
0	81268	67644	54954
0	81274	67644	54944
0	81280	67644	54934
0	81286	67644	54924
0	81292	67644	54914
0	81298	67644	54904
0	81304	67644	54894
0	81310	67644	54884
0	81316	67644	54874
0	81322	67644	54864
0	81328	67644	54854
0	81334	67644	54844
0	81340	67644	54834
0	81346	67644	54824
0	81352	67644	54814
0	81358	67644	54804
0	81364	67644	54794
0	81370	67644	54784
0	81376	67644	54774
0	81382	67644	54764
0	81388	67644	54754
0	81394	67644	54744
0	81400	67644	54734
0	81406	67644	54724
0	81412	67644	54714
0	81418	67644	54704
0	81424	67644	54694
0	81430	67644	54684
0	81436	67644	54674
0	81442	67644	54664
0	81448	67644	54654
0	81454	67644	54644
0	81460	67644	54634
0	81466	67644	54624
0	81472	67644	54614
0	81478	67644	54604
0	81484	67644	54594
0	81490	67644	54584
0	81496	67644	54574
0	81502	67644	54564
0	81508	67644	54554
0	81514	67644	54544
0	81520	67644	54534
0	81526	67644	54524
0	81532	67644	54514
0	81538	67644	54504
0	81544	67644	54494
0	81550	67644	54484
0	81556	67644	54474
0	81562	67644	54464
0	81568	67644	54454
0	81574	67644	54444
0	81580	67644	54434
0	81586	67644	54424
0	81592	67644	54414
0	81598	67644	54404
0	81604	67644	54394
0	81610	67644	54384
0	81616	67644	54374
0	81622	67644	54364
0	81628	67644	54354
0	81634	67644	54344
0	81640	67644	54334
0	81646	67644	54324
0	81652	67644	54314
0	81658	67644	54304
0	81664	67644	54294
0	81670	67644	54284
0	81676	67644	54274
0	81682	67644	54264
0	81688	67644	54254
0	81694	67644	54244
0	81700	67644	54234
0	81706	67644	54224
0	81712	67644	54214
0	81718	67644	54204
0	81724	67644	54194
0	81730	67644	54184
0	81736	67644	54174
0	81742	67644	54164
0	81748	67644	54154
0	81754	67644	54144
0	81760	67644	54134
0	81766	67644	54124
0	81772	67644	54114
0	81778	67644	54104
0	81784	67644	54094
0	81790	67644	54084
0	81796	67644	54074
0	81802	67644	54064
0	81808	67644	54054
0	81814	67644	54044
0	81820	67644	54034
0	81826	67644	54024
0	81832	67644	54014
0	81838	67644	54004
0	81844	67644	53994
0	81850	67644	53984
0	81856	67644	53974
0	81862	67644	53964
0	81868	67644	53954
0	81874	67644	53944
0	81880	67644	53934
0	81886	67644	53924
0	81892	67644	53914
0	81898	67644	53904
0	81904	67644	53894
0	81910	67644	53884
0	81916	67644	53874
0	81922	67644	53864
0	81928	67644	53854
0	81934	67644	53844
0	81940	67644	53834
0	81946	67644	53824
0	81952	67644	53814
0	81958	67644	53804
0	81964	67644	53794
0	81970	67644	53784
0	81976	67644	53774
0	81982	67644	53764
0	81988	67644	53754
0	81994	67644	53744
0	82000	67644	53734
0	82006	67644	53724
0	82012	67644	53714
0	82018	67644	53704
0	82024	67644	53694
0	82030	67644	53684
0	82036	67644	53674
0	82042	67644	53664
0	82048	67644	53654
0	82054	67644	53644
0	82060	67644	53634
0	82066	67644	53624
0	82072	67644	53614
0	82078	67644	53604
0	82084	67644	53594
0	82090	67644	53584
0	82096	67644	53574
0	82102	67644	53564
0	82108	67644	53554
0	82114	67644	53544
0	82120	67644	53534
0	82126	67644	53524
0	82132	67644	53514
0	82138	67644	53504
0	82144	67644	53494
0	82150	67644	53484
0	82156	67644	53474
0	82162	67644	53464
0	82168	67644	53454
0	82174	67644	53444
0	82180	67644	53434
0	82186	67644	53424
0	82192	67644	53414
0	82198	67644	53404
0	82204	67644	53394
0	82210	67644	53384
0	82216	67644	53374
0	82222	67644	53364
0	82228	67644	53354
0	82234	67644	53344
0	82240	67644	53334
0	82246	67644	53324
0	82252	67644	53314
0	82258	67644	53304
0	82264	67644	53294
0	82270	67644	53284
0	82276	67644	53274
0	82282	67644	53264
0	82288	67644	53254
0	82294	67644	53244
0	82300	67644	53234
0	82306	67644	53224
0	82312	67644	53214
0	82318	67644	53204
0	82324	67644	53194
0	82330	67644	53184
0	82336	67644	53174
0	82342	67644	53164
0	82348	67644	53154
0	82354	67644	53144
0	82360	67644	53134
0	82366	67644	53124
0	82372	67644	53114
0	82378	67644	53104
0	82384	67644	53094
0	82390	67644	53084
0	82396	67644	53074
0	82402	67644	53064
0	82408	67644	53054
0	82414	67644	53044
0	82420	67644	53034
0	82426	67644	53024
0	82432	67644	53014
0	82438	67644	53004
0	82444	67644	52994
0	82450	67644	52984
0	82456	67644	52974
0	82462	67644	52964
0	82468	67644	52954
0	82474	67644	52944
0	82480	67644	52934
0	82486	67644	52924
0	82492	67644	52914
0	82498	67644	52904
0	82504	67644	52894
0	82510	67644	52884
0	82516	67644	52874
0	82522	67644	52864
0	82528	67644	52854
0	82534	67644	52844
0	82540	67644	52834
0	82546	67644	52824
0	82552	67644	52814
0	82558	67644	52804
0	82564	67644	52794
0	82570	67644	52784
0	82576	67644	52774
0	82582	67644	52764
0	82588	67644	52754
0	82594	67644	52744
0	82600	67644	52734
0	82606	67644	52724
0	82612	67644	52714
0	82618	67644	52704
0	82624	67644	52694
0	82630	67644	52684
0	82636	67644	52674
0	82642	67644	52664
0	82648	67644	52654
0	82654	67644	52644
0	82660	67644	52634
0	82666	67644	52624
0	82672	67644	52614
0	82678	67644	52604
0	82684	67644	52594
0	82690	67644	52584
0	82696	67644	52574
0	82702	67644	52564
0	82708	67644	52554
0	82714	67644	52544
0	82720	67644	52534
0	82726	67644	52524
0	82732	67644	52514
0	82738	67644	52504
0	82744	67644	52494
0	82750	67644	52484
0	82756	67644	52474
0	82762	67644	52464
0	82768	67644	52454
0	82774	67644	52444
0	82780	67644	52434
0	82786	67644	52424
0	82792	67644	52414
0	82798	67644	52404
0	82804	67644	52394
0	82810	67644	52384
0	82816	67644	52374
0	82822	67644	52364
0	82828	67644	52354
0	82834	67644	52344
0	82840	67644	52334
0	82846	67644	52324
0	82852	67644	52314
0	82858	67644	52304
0	82864	67644	52294
0	82870	67644	52284
0	82876	67644	52274
0	82882	67644	52264
0	82888	67644	52254
0	82894	67644	52244
0	82900	67644	52234
0	82906	67644	52224
0	82912	67644	52214
0	82918	67644	52204
0	82924	67644	52194
0	82930	67644	52184
0	82936	67644	52174
0	82942	67644	52164
0	82948	67644	52154
0	82954	67644	52144
0	82960	67644	52134
0	82966	67644	52124
0	82972	67644	52114
0	82978	67644	52104
0	82984	67644	52094
0	82990	67644	52084
0	82996	67644	52074
0	83002	67644	52064
0	83008	67644	52054
0	83014	67644	52044
0	83020	67644	52034
0	83026	67644	52024
0	83032	67644	52014
0	83038	67644	52004
0	83044	67644	51994
0	83050	67644	51984
0	83056	67644	51974
0	83062	67644	51964
0	83068	67644	51954
0	83074	67644	51944
0	83080	67644	51934
0	83086	67644	51924
0	83092	67644	51914
0	83098	67644	51904
0	83104	67644	51894
0	83110	67644	51884
0	83116	67644	51874
0	83122	67644	51864
0	83128	67644	51854
0	83134	67644	51844
0	83140	67644	51834
0	83146	67644	51824
0	83152	67644	51814
0	83158	67644	51804
0	83164	67644	51794
0	83170	67644	51784
0	83176	67644	51774
0	83182	67644	51764
0	83188	67644	51754
0	83194	67644	51744
0	83200	67644	51734
0	83206	67644	51724
0	83212	67644	51714
0	83218	67644	51704
0	83224	67644	51694
0	83230	67644	51684
0	83236	67644	51674
0	83242	67644	51664
0	83248	67644	51654
0	83254	67644	51644
0	83260	67644	51634
0	83266	67644	51624
0	83272	67644	51614
0	83278	67644	51604
0	83284	67644	51594
0	83290	67644	51584
0	83296	67644	51574
0	83302	67644	51564
0	83308	67644	51554
0	83314	67644	51544
0	83320	67644	51534
0	83326	67644	51524
0	83332	67644	51514
0	83338	67644	51504
0	83344	67644	51494
0	83350	67644	51484
0	83356	67644	51474
0	83362	67644	51464
0	83368	67644	51454
0	83374	67644	51444
0	83380	67644	51434
0	83386	67644	51424
0	83392	67644	51414
0	83398	67644	51404
0	83404	67644	51394
0	83410	67644	51384
0	83416	67644	51374
0	83422	67644	51364
0	83428	67644	51354
0	83434	67644	51344
0	83440	67644	51334
0	83446	67644	51324
0	83452	67644	51314
0	83458	67644	51304
0	83464	67644	51294
0	83470	67644	51284
0	83476	67644	51274
0	83482	67644	51264
0	83488	67644	51254
0	83494	67644	51244
0	83500	67644	51234
0	83506	67644	51224
0	83512	67644	51214
0	83518	67644	51204
0	83524	67644	51194
0	83530	67644	51184
0	83536	67644	51174
0	83542	67644	51164
0	83548	67644	51154
0	83554	67644	51144
0	83560	67644	51134
0	83566	67644	51124
0	83572	67644	51114
0	83578	67644	51104
0	83584	67644	51094
0	83590	67644	51084
0	83596	67644	51074
0	83602	67644	51064
0	83608	67644	51054
0	83614	67644	51044
0	83620	67644	51034
0	83626	67644	51024
0	83632	67644	51014
0	83638	67644	51004
0	83644	67644	50994
0	83650	67644	50984
0	83656	67644	50974
0	83662	67644	50964
0	83668	67644	50954
0	83674	67644	50944
0	83680	67644	50934
0	83686	67644	50924
0	83692	67644	50914
0	83698	67644	50904
0	83704	67644	50894
0	83710	67644	50884
0	83716	67644	50874
0	83722	67644	50864
0	83728	67644	50854
0	83734	67644	50844
0	83740	67644	50834
0	83746	67644	50824
0	83752	67644	50814
0	83758	67644	50804
0	83764	67644	50794
0	83770	67644	50784
0	83776	67644	50774
0	83782	67644	50764
0	83788	67644	50754
0	83794	67644	50744
0	83800	67644	50734
0	83806	67644	50724
0	83812	67644	50714
0	83818	67644	50704
0	83824	67644	50694
0	83830	67644	50684
0	83836	67644	50674
0	83842	67644	50664
0	83848	67644	50654
0	83854	67644	50644
0	83860	67644	50634
0	83866	67644	50624
0	83872	67644	50614
0	83878	67644	50604
0	83884	67644	50594
0	83890	67644	50584
0	83896	67644	50574
0	83902	67644	50564
0	83908	67644	50554
0	83914	67644	50544
0	83920	67644	50534
0	83926	67644	50524
0	83932	67644	50514
0	83938	67644	50504
0	83944	67644	50494
0	83950	67644	50484
0	83956	67644	50474
0	83962	67644	50464
0	83968	67644	50454
0	83974	67644	50444
0	83980	67644	50434
0	83986	67644	50424
0	83992	67644	50414
0	83998	67644	50404
0	84004	67644	50394
0	84010	67644	50384
0	84016	67644	50374
0	84022	67644	50364
0	84028	67644	50354
0	84034	67644	50344
0	84040	67644	50334
0	84046	67644	50324
0	84052	67644	50314
0	84058	67644	50304
0	84064	67644	50294
0	84070	67644	50284
0	84076	67644	50274
0	84082	67644	50264
0	84088	67644	50254
0	84094	67644	50244
0	84100	67644	50234
0	84106	67644	50224
0	84112	67644	50214
0	84118	67644	50204
0	84124	67644	50194
0	84130	67644	50184
0	84136	67644	50174
0	84142	67644	50164
0	84148	67644	50154
0	84154	67644	50144
0	84160	67644	50134
0	84166	67644	50124
0	84172	67644	50114
0	84178	67644	50104
0	84184	67644	50094
0	84190	67644	50084
0	84196	67644	50074
0	84202	67644	50064
0	84208	67644	50054
0	84214	67644	50044
0	84220	67644	50034
0	84226	67644	50024
0	84232	67644	50014
0	84238	67644	50004
0	84244	67644	49994
0	84250	67644	49984
0	84256	67644	49974
0	84262	67644	49964
0	84268	67644	49954
0	84274	67644	49944
0	84280	67644	49934
0	84286	67644	49924
0	84292	67644	49914
0	84298	67644	49904
0	84304	67644	49894
0	84310	67644	49884
0	84316	67644	49874
0	84322	67644	49864
0	84328	67644	49854
0	84334	67644	49844
0	84340	67644	49834
0	84346	67644	49824
0	84352	67644	49814
0	84358	67644	49804
0	84364	67644	49794
0	84370	67644	49784
0	84376	67644	49774
0	84382	67644	49764
0	84388	67644	49754
0	84394	67644	49744
0	84400	67644	49734
0	84406	67644	49724
0	84412	67644	49714
0	84418	67644	49704
0	84424	67644	49694
0	84430	67644	49684
0	84436	67644	49674
0	84442	67644	49664
0	84448	67644	49654
0	84454	67644	49644
0	84460	67644	49634
0	84466	67644	49624
0	84472	67644	49614
0	84478	67644	49604
0	84484	67644	49594
0	84490	67644	49584
0	84496	67644	49574
0	84502	67644	49564
0	84508	67644	49554
0	84514	67644	49544
0	84520	67644	49534
0	84526	67644	49524
0	84532	67644	49514
0	84538	67644	49504
0	84544	67644	49494
0	84550	67644	49484
0	84556	67644	49474
0	84562	67644	49464
0	84568	67644	49454
0	84574	67644	49444
0	84580	67644	49434
0	84586	67644	49424
0	84592	67644	49414
0	84598	67644	49404
0	84604	67644	49394
0	84610	67644	49384
0	84616	67644	49374
0	84622	67644	49364
0	84628	67644	49354
0	84634	67644	49344
0	84640	67644	49334
0	84646	67644	49324
0	84652	67644	49314
0	84658	67644	49304
0	84664	67644	49294
0	84670	67644	49284
0	84676	67644	49274
0	84682	67644	49264
0	84688	67644	49254
0	84694	67644	49244
0	84700	67644	49234
0	84706	67644	49224
0	84712	67644	49214
0	84718	67644	49204
0	84724	67644	49194
0	84730	67644	49184
0	84736	67644	49174
0	84742	67644	49164
0	84748	67644	49154
0	84754	67644	49144
0	84760	67644	49134
0	84766	67644	49124
0	84772	67644	49114
0	84778	67644	49104
0	84784	67644	49094
0	84790	67644	49084
0	84796	67644	49074
0	84802	67644	49064
0	84808	67644	49054
0	84814	67644	49044
0	84820	67644	49034
0	84826	67644	49024
0	84832	67644	49014
0	84838	67644	49004
0	84844	67644	48994
0	84850	67644	48984
0	84856	67644	48974
0	84862	67644	48964
0	84868	67644	48954
0	84874	67644	48944
0	84880	67644	48934
0	84886	67644	48924
0	84892	67644	48914
0	84898	67644	48904
0	84904	67644	48894
0	84910	67644	48884
0	84916	67644	48874
0	84922	67644	48864
0	84928	67644	48854
0	84934	67644	48844
0	84940	67644	48834
0	84946	67644	48824
0	84952	67644	48814
0	84958	67644	48804
0	84964	67644	48794
0	84970	67644	48784
0	84976	67644	48774
0	84982	67644	48764
0	84988	67644	48754
0	84994	67644	48744
0	85000	67644	48734
0	85006	67644	48724
0	85012	67644	48714
0	85018	67644	48704
0	85024	67644	48694
0	85030	67644	48684
0	85036	67644	48674
0	85042	67644	48664
0	85048	67644	48654
0	85054	67644	48644
0	85060	67644	48634
0	85066	67644	48624
0	85072	67644	48614
0	85078	67644	48604
0	85084	67644	48594
0	85090	67644	48584
0	85096	67644	48574
0	85102	67644	48564
0	85108	67644	48554
0	85114	67644	48544
0	85120	67644	48534
0	85126	67644	48524
0	85132	67644	48514
0	85138	67644	48504
0	85144	67644	48494
0	85150	67644	48484
0	85156	67644	48474
0	85162	67644	48464
0	85168	67644	48454
0	85174	67644	48444
0	85180	67644	48434
0	85186	67644	48424
0	85192	67644	48414
0	85198	67644	48404
0	85204	67644	48394
0	85210	67644	48384
0	85216	67644	48374
0	85222	67644	48364
0	85228	67644	48354
0	85234	67644	48344
0	85240	67644	48334
0	85246	67644	48324
0	85252	67644	48314
0	85258	67644	48304
0	85264	67644	48294
0	85270	67644	48284
0	85276	67644	48274
0	85282	67644	48264
0	85288	67644	48254
0	85294	67644	48244
0	85300	67644	48234
0	85306	67644	48224
0	85312	67644	48214
0	85318	67644	48204
0	85324	67644	48194
0	85330	67644	48184
0	85336	67644	48174
0	85342	67644	48164
0	85348	67644	48154
0	85354	67644	48144
0	85360	67644	48134
0	85366	67644	48124
0	85372	67644	48114
0	85378	67644	48104
0	85384	67644	48094
0	85390	67644	48084
0	85396	67644	48074
0	85402	67644	48064
0	85408	67644	48054
0	85414	67644	48044
0	85420	67644	48034
0	85426	67644	48024
0	85432	67644	48014
0	85438	67644	48004
0	85444	67644	47994
0	85450	67644	47984
0	85456	67644	47974
0	85462	67644	47964
0	85468	67644	47954
0	85474	67644	47944
0	85480	67644	47934
0	85486	67644	47924
0	85492	67644	47914
0	85498	67644	47904
0	85504	67644	47894
0	85510	67644	47884
0	85516	67644	47874
0	85522	67644	47864
0	85528	67644	47854
0	85534	67644	47844
0	85540	67644	47834
0	85546	67644	47824
0	85552	67644	47814
0	85558	67644	47804
0	85564	67644	47794
0	85570	67644	47784
0	85576	67644	47774
0	85582	67644	47764
0	85588	67644	47754
0	85594	67644	47744
0	85600	67644	47734
0	85606	67644	47724
0	85612	67644	47714
0	85618	67644	47704
0	85624	67644	47694
0	85630	67644	47684
0	85636	67644	47674
0	85642	67644	47664
0	85648	67644	47654
0	85654	67644	47644
0	85660	67644	47634
0	85666	67644	47624
0	85672	67644	47614
0	85678	67644	47604
0	85684	67644	47594
0	85690	67644	47584
0	85696	67644	47574
0	85702	67644	47564
0	85708	67644	47554
0	85714	67644	47544
0	85720	67644	47534
0	85726	67644	47524
0	85732	67644	47514
0	85738	67644	47504
0	85744	67644	47494
0	85750	67644	47484
0	85756	67644	47474
0	85762	67644	47464
0	85768	67644	47454
0	85774	67644	47444
0	85780	67644	47434
0	85786	67644	47424
0	85792	67644	47414
0	85798	67644	47404
0	85804	67644	47394
0	85810	67644	47384
0	85816	67644	47374
0	85822	67644	47364
0	85828	67644	47354
0	85834	67644	47344
0	85840	67644	47334
0	85846	67644	47324
0	85852	67644	47314
0	85858	67644	47304
0	85864	67644	47294
0	85870	67644	47284
0	85876	67644	47274
0	85882	67644	47264
0	85888	67644	47254
0	85894	67644	47244
0	85900	67644	47234
0	85906	67644	47224
0	85912	67644	47214
0	85918	67644	47204
0	85924	67644	47194
0	85930	67644	47184
0	85936	67644	47174
0	85942	67644	47164
0	85948	67644	47154
0	85954	67644	47144
0	85960	67644	47134
0	85966	67644	47124
0	85972	67644	47114
0	85978	67644	47104
0	85984	67644	47094
0	85990	67644	47084
0	85996	67644	47074
0	86002	67644	47064
0	86008	67644	47054
0	86014	67644	47044
0	86020	67644	47034
0	86026	67644	47024
0	86032	67644	47014
0	86038	67644	47004
0	86044	67644	46994
0	86050	67644	46984
0	86056	67644	46974
0	86062	67644	46964
0	86068	67644	46954
0	86074	67644	46944
0	86080	67644	46934
0	86086	67644	46924
0	86092	67644	46914
0	86098	67644	46904
0	86104	67644	46894
0	86110	67644	46884
0	86116	67644	46874
0	86122	67644	46864
0	86128	67644	46854
0	86134	67644	46844
0	86140	67644	46834
0	86146	67644	46824
0	86152	67644	46814
0	86158	67644	46804
0	86164	67644	46794
0	86170	67644	46784
0	86176	67644	46774
0	86182	67644	46764
0	86188	67644	46754
0	86194	67644	46744
0	86200	67644	46734
0	86206	67644	46724
0	86212	67644	46714
0	86218	67644	46704
0	86224	67644	46694
0	86230	67644	46684
0	86236	67644	46674
0	86242	67644	46664
0	86248	67644	46654
0	86254	67644	46644
0	86260	67644	46634
0	86266	67644	46624
0	86272	67644	46614
0	86278	67644	46604
0	86284	67644	46594
0	86290	67644	46584
0	86296	67644	46574
0	86302	67644	46564
0	86308	67644	46554
0	86314	67644	46544
0	86320	67644	46534
0	86326	67644	46524
0	86332	67644	46514
0	86338	67644	46504
0	86344	67644	46494
0	86350	67644	46484
0	86356	67644	46474
0	86362	67644	46464
0	86368	67644	46454
0	86374	67644	46444
0	86380	67644	46434
0	86386	67644	46424
0	86392	67644	46414
0	86398	67644	46404
0	86404	67644	46394
0	86410	67644	46384
0	86416	67644	46374
0	86422	67644	46364
0	86428	67644	46354
0	86434	67644	46344
0	86440	67644	46334
0	86446	67644	46324
0	86452	67644	46314
0	86458	67644	46304
0	86464	67644	46294
0	86470	67644	46284
0	86476	67644	46274
0	86482	67644	46264
0	86488	67644	46254
0	86494	67644	46244
0	86500	67644	46234
0	86506	67644	46224
0	86512	67644	46214
0	86518	67644	46204
0	86524	67644	46194
0	86530	67644	46184
0	86536	67644	46174
0	86542	67644	46164
0	86548	67644	46154
0	86554	67644	46144
0	86560	67644	46134
0	86566	67644	46124
0	86572	67644	46114
0	86578	67644	46104
0	86584	67644	46094
0	86590	67644	46084
0	86596	67644	46074
0	86602	67644	46064
0	86608	67644	46054
0	86614	67644	46044
0	86620	67644	46034
0	86626	67644	46024
0	86632	67644	46014
0	86638	67644	46004
0	86644	67644	45994
0	86650	67644	45984
0	86656	67644	45974
0	86662	67644	45964
0	86668	67644	45954
0	86674	67644	45944
0	86680	67644	45934
0	86686	67644	45924
0	86692	67644	45914
0	86698	67644	45904
0	86704	67644	45894
0	86710	67644	45884
0	86716	67644	45874
0	86722	67644	45864
0	86728	67644	45854
0	86734	67644	45844
0	86740	67644	45834
0	86746	67644	45824
0	86752	67644	45814
0	86758	67644	45804
0	86764	67644	45794
0	86770	67644	45784
0	86776	67644	45774
0	86782	67644	45764
0	86788	67644	45754
0	86794	67644	45744
0	86800	67644	45734
0	86806	67644	45724
0	86812	67644	45714
0	86818	67644	45704
0	86824	67644	45694
0	86830	67644	45684
0	86836	67644	45674
0	86842	67644	45664
0	86848	67644	45654
0	86854	67644	45644
0	86860	67644	45634
0	86866	67644	45624
0	86872	67644	45614
0	86878	67644	45604
0	86884	67644	45594
0	86890	67644	45584
0	86896	67644	45574
0	86902	67644	45564
0	86908	67644	45554
0	86914	67644	45544
0	86920	67644	45534
0	86926	67644	45524
0	86932	67644	45514
0	86938	67644	45504
0	86944	67644	45494
0	86950	67644	45484
0	86956	67644	45474
0	86962	67644	45464
0	86968	67644	45454
0	86974	67644	45444
0	86980	67644	45434
0	86986	67644	45424
0	86992	67644	45414
0	86998	67644	45404
0	87004	67644	45394
0	87010	67644	45384
0	87016	67644	45374
0	87022	67644	45364
0	87028	67644	45354
0	87034	67644	45344
0	87040	67644	45334
0	87046	67644	45324
0	87052	67644	45314
0	87058	67644	45304
0	87064	67644	45294
0	87070	67644	45284
0	87076	67644	45274
0	87082	67644	45264
0	87088	67644	45254
0	87094	67644	45244
0	87100	67644	45234
0	87106	67644	45224
0	87112	67644	45214
0	87118	67644	45204
0	87124	67644	45194
0	87130	67644	45184
0	87136	67644	45174
0	87142	67644	45164
0	87148	67644	45154
0	87154	67644	45144
0	87160	67644	45134
0	87166	67644	45124
0	87172	67644	45114
0	87178	67644	45104
0	87184	67644	45094
0	87190	67644	45084
0	87196	67644	45074
0	87202	67644	45064
0	87208	67644	45054
0	87214	67644	45044
0	87220	67644	45034
0	87226	67644	45024
0	87232	67644	45014
0	87238	67644	45004
0	87244	67644	44994
0	87250	67644	44984
0	87256	67644	44974
0	87262	67644	44964
0	87268	67644	44954
0	87274	67644	44944
0	87280	67644	44934
0	87286	67644	44924
0	87292	67644	44914
0	87298	67644	44904
0	87304	67644	44894
0	87310	67644	44884
0	87316	67644	44874
0	87322	67644	44864
0	87328	67644	44854
0	87334	67644	44844
0	87340	67644	44834
0	87346	67644	44824
0	87352	67644	44814
0	87358	67644	44804
0	87364	67644	44794
0	87370	67644	44784
0	87376	67644	44774
0	87382	67644	44764
0	87388	67644	44754
0	87394	67644	44744
0	87400	67644	44734
0	87406	67644	44724
0	87412	67644	44714
0	87418	67644	44704
0	87424	67644	44694
0	87430	67644	44684
0	87436	67644	44674
0	87442	67644	44664
0	87448	67644	44654
0	87454	67644	44644
0	87460	67644	44634
0	87466	67644	44624
0	87472	67644	44614
0	87478	67644	44604
0	87484	67644	44594
0	87490	67644	44584
0	87496	67644	44574
0	87502	67644	44564
0	87508	67644	44554
0	87514	67644	44544
0	87520	67644	44534
0	87526	67644	44524
0	87532	67644	44514
0	87538	67644	44504
0	87544	67644	44494
0	87550	67644	44484
0	87556	67644	44474
0	87562	67644	44464
0	87568	67644	44454
0	87574	67644	44444
0	87580	67644	44434
0	87586	67644	44424
0	87592	67644	44414
0	87598	67644	44404
0	87604	67644	44394
0	87610	67644	44384
0	87616	67644	44374
0	87622	67644	44364
0	87628	67644	44354
0	87634	67644	44344
0	87640	67644	44334
0	87646	67644	44324
0	87652	67644	44314
0	87658	67644	44304
0	87664	67644	44294
0	87670	67644	44284
0	87676	67644	44274
0	87682	67644	44264
0	87688	67644	44254
0	87694	67644	44244
0	87700	67644	44234
0	87706	67644	44224
0	87712	67644	44214
0	87718	67644	44204
0	87724	67644	44194
0	87730	67644	44184
0	87736	67644	44174
0	87742	67644	44164
0	87748	67644	44154
0	87754	67644	44144
0	87760	67644	44134
0	87766	67644	44124
0	87772	67644	44114
0	87778	67644	44104
0	87784	67644	44094
0	87790	67644	44084
0	87796	67644	44074
0	87802	67644	44064
0	87808	67644	44054
0	87814	67644	44044
0	87820	67644	44034
0	87826	67644	44024
0	87832	67644	44014
0	87838	67644	44004
0	87844	67644	43994
0	87850	67644	43984
0	87856	67644	43974
0	87862	67644	43964
0	87868	67644	43954
0	87874	67644	43944
0	87880	67644	43934
0	87886	67644	43924
0	87892	67644	43914
0	87898	67644	43904
0	87904	67644	43894
0	87910	67644	43884
0	87916	67644	43874
0	87922	67644	43864
0	87928	67644	43854
0	87934	67644	43844
0	87940	67644	43834
0	87946	67644	43824
0	87952	67644	43814
0	87958	67644	43804
0	87964	67644	43794
0	87970	67644	43784
0	87976	67644	43774
0	87982	67644	43764
0	87988	67644	43754
0	87994	67644	43744
0	88000	67644	43734
0	88006	67644	43724
0	88012	67644	43714
0	88018	67644	43704
0	88024	67644	43694
0	88030	67644	43684
0	88036	67644	43674
0	88042	67644	43664
0	88048	67644	43654
0	88054	67644	43644
0	88060	67644	43634
0	88066	67644	43624
0	88072	67644	43614
0	88078	67644	43604
0	88084	67644	43594
0	88090	67644	43584
0	88096	67644	43574
0	88102	67644	43564
0	88108	67644	43554
0	88114	67644	43544
0	88120	67644	43534
0	88126	67644	43524
0	88132	67644	43514
0	88138	67644	43504
0	88144	67644	43494
0	88150	67644	43484
0	88156	67644	43474
0	88162	67644	43464
0	88168	67644	43454
0	88174	67644	43444
0	88180	67644	43434
0	88186	67644	43424
0	88192	67644	43414
0	88198	67644	43404
0	88204	67644	43394
0	88210	67644	43384
0	88216	67644	43374
0	88222	67644	43364
0	88228	67644	43354
0	88234	67644	43344
0	88240	67644	43334
0	88246	67644	43324
0	88252	67644	43314
0	88258	67644	43304
0	88264	67644	43294
0	88270	67644	43284
0	88276	67644	43274
0	88282	67644	43264
0	88288	67644	43254
0	88294	67644	43244
0	88300	67644	43234
0	88306	67644	43224
0	88312	67644	43214
0	88318	67644	43204
0	88324	67644	43194
0	88330	67644	43184
0	88336	67644	43174
0	88342	67644	43164
0	88348	67644	43154
0	88354	67644	43144
0	88360	67644	43134
0	88366	67644	43124
0	88372	67644	43114
0	88378	67644	43104
0	88384	67644	43094
0	88390	67644	43084
0	88396	67644	43074
0	88402	67644	43064
0	88408	67644	43054
0	88414	67644	43044
0	88420	67644	43034
0	88426	67644	43024
0	88432	67644	43014
0	88438	67644	43004
0	88444	67644	42994
0	88450	67644	42984
0	88456	67644	42974
0	88462	67644	42964
0	88468	67644	42954
0	88474	67644	42944
0	88480	67644	42934
0	88486	67644	42924
0	88492	67644	42914
0	88498	67644	42904
0	88504	67644	42894
0	88510	67644	42884
0	88516	67644	42874
0	88522	67644	42864
0	88528	67644	42854
0	88534	67644	42844
0	88540	67644	42834
0	88546	67644	42824
0	88552	67644	42814
0	88558	67644	42804
0	88564	67644	42794
0	88570	67644	42784
0	88576	67644	42774
0	88582	67644	42764
0	88588	67644	42754
0	88594	67644	42744
0	88600	67644	42734
0	88606	67644	42724
0	88612	67644	42714
0	88618	67644	42704
0	88624	67644	42694
0	88630	67644	42684
0	88636	67644	42674
0	88642	67644	42664
0	88648	67644	42654
0	88654	67644	42644
0	88660	67644	42634
0	88666	67644	42624
0	88672	67644	42614
0	88678	67644	42604
0	88684	67644	42594
0	88690	67644	42584
0	88696	67644	42574
0	88702	67644	42564
0	88708	67644	42554
0	88714	67644	42544
0	88720	67644	42534
0	88726	67644	42524
0	88732	67644	42514
0	88738	67644	42504
0	88744	67644	42494
0	88750	67644	42484
0	88756	67644	42474
0	88762	67644	42464
0	88768	67644	42454
0	88774	67644	42444
0	88780	67644	42434
0	88786	67644	42424
0	88792	67644	42414
0	88798	67644	42404
0	88804	67644	42394
0	88810	67644	42384
0	88816	67644	42374
0	88822	67644	42364
0	88828	67644	42354
0	88834	67644	42344
0	88840	67644	42334
0	88846	67644	42324
0	88852	67644	42314
0	88858	67644	42304
0	88864	67644	42294
0	88870	67644	42284
0	88876	67644	42274
0	88882	67644	42264
0	88888	67644	42254
0	88894	67644	42244
0	88900	67644	42234
0	88906	67644	42224
0	88912	67644	42214
0	88918	67644	42204
0	88924	67644	42194
0	88930	67644	42184
0	88936	67644	42174
0	88942	67644	42164
0	88948	67644	42154
0	88954	67644	42144
0	88960	67644	42134
0	88966	67644	42124
0	88972	67644	42114
0	88978	67644	42104
0	88984	67644	42094
0	88990	67644	42084
0	88996	67644	42074
0	89002	67644	42064
0	89008	67644	42054
0	89014	67644	42044
0	89020	67644	42034
0	89026	67644	42024
0	89032	67644	42014
0	89038	67644	42004
0	89044	67644	41994
0	89050	67644	41984
0	89056	67644	41974
0	89062	67644	41964
0	89068	67644	41954
0	89074	67644	41944
0	89080	67644	41934
0	89086	67644	41924
0	89092	67644	41914
0	89098	67644	41904
0	89104	67644	41894
0	89110	67644	41884
0	89116	67644	41874
0	89122	67644	41864
0	89128	67644	41854
0	89134	67644	41844
0	89140	67644	41834
0	89146	67644	41824
0	89152	67644	41814
0	89158	67644	41804
0	89164	67644	41794
0	89170	67644	41784
0	89176	67644	41774
0	89182	67644	41764
0	89188	67644	41754
0	89194	67644	41744
0	89200	67644	41734
0	89206	67644	41724
0	89212	67644	41714
0	89218	67644	41704
0	89224	67644	41694
0	89230	67644	41684
0	89236	67644	41674
0	89242	67644	41664
0	89248	67644	41654
0	89254	67644	41644
0	89260	67644	41634
0	89266	67644	41624
0	89272	67644	41614
0	89278	67644	41604
0	89284	67644	41594
0	89290	67644	41584
0	89296	67644	41574
0	89302	67644	41564
0	89308	67644	41554
0	89314	67644	41544
0	89320	67644	41534
0	89326	67644	41524
0	89332	67644	41514
0	89338	67644	41504
0	89344	67644	41494
0	89350	67644	41484
0	89356	67644	41474
0	89362	67644	41464
0	89368	67644	41454
0	89374	67644	41444
0	89380	67644	41434
0	89386	67644	41424
0	89392	67644	41414
0	89398	67644	41404
0	89404	67644	41394
0	89410	67644	41384
0	89416	67644	41374
0	89422	67644	41364
0	89428	67644	41354
0	89434	67644	41344
0	89440	67644	41334
0	89446	67644	41324
0	89452	67644	41314
0	89458	67644	41304
0	89464	67644	41294
0	89470	67644	41284
0	89476	67644	41274
0	89482	67644	41264
0	89488	67644	41254
0	89494	67644	41244
0	89500	67644	41234
0	89506	67644	41224
0	89512	67644	41214
0	89518	67644	41204
0	89524	67644	41194
0	89530	67644	41184
0	89536	67644	41174
0	89542	67644	41164
0	89548	67644	41154
0	89554	67644	41144
0	89560	67644	41134
0	89566	67644	41124
0	89572	67644	41114
0	89578	67644	41104
0	89584	67644	41094
0	89590	67644	41084
0	89596	67644	41074
0	89602	67644	41064
0	89608	67644	41054
0	89614	67644	41044
0	89620	67644	41034
0	89626	67644	41024
0	89632	67644	41014
0	89638	67644	41004
0	89644	67644	40994
0	89650	67644	40984
0	89656	67644	40974
0	89662	67644	40964
0	89668	67644	40954
0	89674	67644	40944
0	89680	67644	40934
0	89686	67644	40924
0	89692	67644	40914
0	89698	67644	40904
0	89704	67644	40894
0	89710	67644	40884
0	89716	67644	40874
0	89722	67644	40864
0	89728	67644	40854
0	89734	67644	40844
0	89740	67644	40834
0	89746	67644	40824
0	89752	67644	40814
0	89758	67644	40804
0	89764	67644	40794
0	89770	67644	40784
0	89776	67644	40774
0	89782	67644	40764
0	89788	67644	40754
0	89794	67644	40744
0	89800	67644	40734
0	89806	67644	40724
0	89812	67644	40714
0	89818	67644	40704
0	89824	67644	40694
0	89830	67644	40684
0	89836	67644	40674
0	89842	67644	40664
0	89848	67644	40654
0	89854	67644	40644
0	89860	67644	40634
0	89866	67644	40624
0	89872	67644	40614
0	89878	67644	40604
0	89884	67644	40594
0	89890	67644	40584
0	89896	67644	40574
0	89902	67644	40564
0	89908	67644	40554
0	89914	67644	40544
0	89920	67644	40534
0	89926	67644	40524
0	89932	67644	40514
0	89938	67644	40504
0	89944	67644	40494
0	89950	67644	40484
0	89956	67644	40474
0	89962	67644	40464
0	89968	67644	40454
0	89974	67644	40444
0	89980	67644	40434
0	89986	67644	40424
0	89992	67644	40414
0	89998	67644	40404
0	90004	67644	40394
0	90010	67644	40384
0	90016	67644	40374
0	90022	67644	40364
0	90028	67644	40354
0	90034	67644	40344
0	90040	67644	40334
0	90046	67644	40324
0	90052	67644	40314
0	90058	67644	40304
0	90064	67644	40294
0	90070	67644	40284
0	90076	67644	40274
0	90082	67644	40264
0	90088	67644	40254
0	90094	67644	40244
0	90100	67644	40234
0	90106	67644	40224
0	90112	67644	40214
0	90118	67644	40204
0	90124	67644	40194
0	90130	67644	40184
0	90136	67644	40174
0	90142	67644	40164
0	90148	67644	40154
0	90154	67644	40144
0	90160	67644	40134
0	90166	67644	40124
0	90172	67644	40114
0	90178	67644	40104
0	90184	67644	40094
0	90190	67644	40084
0	90196	67644	40074
0	90202	67644	40064
0	90208	67644	40054
0	90214	67644	40044
0	90220	67644	40034
0	90226	67644	40024
0	90232	67644	40014
0	90238	67644	40004
0	90244	67644	39994
0	90250	67644	39984
0	90256	67644	39974
0	90262	67644	39964
0	90268	67644	39954
0	90274	67644	39944
0	90280	67644	39934
0	90286	67644	39924
0	90292	67644	39914
0	90298	67644	39904
0	90304	67644	39894
0	90310	67644	39884
0	90316	67644	39874
0	90322	67644	39864
0	90328	67644	39854
0	90334	67644	39844
0	90340	67644	39834
0	90346	67644	39824
0	90352	67644	39814
0	90358	67644	39804
0	90364	67644	39794
0	90370	67644	39784
0	90376	67644	39774
0	90382	67644	39764
0	90388	67644	39754
0	90394	67644	39744
0	90400	67644	39734
0	90406	67644	39724
0	90412	67644	39714
0	90418	67644	39704
0	90424	67644	39694
0	90430	67644	39684
0	90436	67644	39674
0	90442	67644	39664
0	90448	67644	39654
0	90454	67644	39644
0	90460	67644	39634
0	90466	67644	39624
0	90472	67644	39614
0	90478	67644	39604
0	90484	67644	39594
0	90490	67644	39584
0	90496	67644	39574
0	90502	67644	39564
0	90508	67644	39554
0	90514	67644	39544
0	90520	67644	39534
0	90526	67644	39524
0	90532	67644	39514
0	90538	67644	39504
0	90544	67644	39494
0	90550	67644	39484
0	90556	67644	39474
0	90562	67644	39464
0	90568	67644	39454
0	90574	67644	39444
0	90580	67644	39434
0	90586	67644	39424
0	90592	67644	39414
0	90598	67644	39404
0	90604	67644	39394
0	90610	67644	39384
0	90616	67644	39374
0	90622	67644	39364
0	90628	67644	39354
0	90634	67644	39344
0	90640	67644	39334
0	90646	67644	39324
0	90652	67644	39314
0	90658	67644	39304
0	90664	67644	39294
0	90670	67644	39284
0	90676	67644	39274
0	90682	67644	39264
0	90688	67644	39254
0	90694	67644	39244
0	90700	67644	39234
0	90706	67644	39224
0	90712	67644	39214
0	90718	67644	39204
0	90724	67644	39194
0	90730	67644	39184
0	90736	67644	39174
0	90742	67644	39164
0	90748	67644	39154
0	90754	67644	39144
0	90760	67644	39134
0	90766	67644	39124
0	90772	67644	39114
0	90778	67644	39104
0	90784	67644	39094
0	90790	67644	39084
0	90796	67644	39074
0	90802	67644	39064
0	90808	67644	39054
0	90814	67644	39044
0	90820	67644	39034
0	90826	67644	39024
0	90832	67644	39014
0	90838	67644	39004
0	90844	67644	38994
0	90850	67644	38984
0	90856	67644	38974
0	90862	67644	38964
0	90868	67644	38954
0	90874	67644	38944
0	90880	67644	38934
0	90886	67644	38924
0	90892	67644	38914
0	90898	67644	38904
0	90904	67644	38894
0	90910	67644	38884
0	90916	67644	38874
0	90922	67644	38864
0	90928	67644	38854
0	90934	67644	38844
0	90940	67644	38834
0	90946	67644	38824
0	90952	67644	38814
0	90958	67644	38804
0	90964	67644	38794
0	90970	67644	38784
0	90976	67644	38774
0	90982	67644	38764
0	90988	67644	38754
0	90994	67644	38744
0	91000	67644	38734
0	91006	67644	38724
0	91012	67644	38714
0	91018	67644	38704
0	91024	67644	38694
0	91030	67644	38684
0	91036	67644	38674
0	91042	67644	38664
0	91048	67644	38654
0	91054	67644	38644
0	91060	67644	38634
0	91066	67644	38624
0	91072	67644	38614
0	91078	67644	38604
0	91084	67644	38594
0	91090	67644	38584
0	91096	67644	38574
0	91102	67644	38564
0	91108	67644	38554
0	91114	67644	38544
0	91120	67644	38534
0	91126	67644	38524
0	91132	67644	38514
0	91138	67644	38504
0	91144	67644	38494
0	91150	67644	38484
0	91156	67644	38474
0	91162	67644	38464
0	91168	67644	38454
0	91174	67644	38444
0	91180	67644	38434
0	91186	67644	38424
0	91192	67644	38414
0	91198	67644	38404
0	91204	67644	38394
0	91210	67644	38384
0	91216	67644	38374
0	91222	67644	38364
0	91228	67644	38354
0	91234	67644	38344
0	91240	67644	38334
0	91246	67644	38324
0	91252	67644	38314
0	91258	67644	38304
0	91264	67644	38294
0	91270	67644	38284
0	91276	67644	38274
0	91282	67644	38264
0	91288	67644	38254
0	91294	67644	38244
0	91300	67644	38234
0	91306	67644	38224
0	91312	67644	38214
0	91318	67644	38204
0	91324	67644	38194
0	91330	67644	38184
0	91336	67644	38174
0	91342	67644	38164
0	91348	67644	38154
0	91354	67644	38144
0	91360	67644	38134
0	91366	67644	38124
0	91372	67644	38114
0	91378	67644	38104
0	91384	67644	38094
0	91390	67644	38084
0	91396	67644	38074
0	91402	67644	38064
0	91408	67644	38054
0	91414	67644	38044
0	91420	67644	38034
0	91426	67644	38024
0	91432	67644	38014
0	91438	67644	38004
0	91444	67644	37994
0	91450	67644	37984
0	91456	67644	37974
0	91462	67644	37964
0	91468	67644	37954
0	91474	67644	37944
0	91480	67644	37934
0	91486	67644	37924
0	91492	67644	37914
0	91498	67644	37904
0	91504	67644	37894
0	91510	67644	37884
0	91516	67644	37874
0	91522	67644	37864
0	91528	67644	37854
0	91534	67644	37844
0	91540	67644	37834
0	91546	67644	37824
0	91552	67644	37814
0	91558	67644	37804
0	91564	67644	37794
0	91570	67644	37784
0	91576	67644	37774
0	91582	67644	37764
0	91588	67644	37754
0	91594	67644	37744
0	91600	67644	37734
0	91606	67644	37724
0	91612	67644	37714
0	91618	67644	37704
0	91624	67644	37694
0	91630	67644	37684
0	91636	67644	37674
0	91642	67644	37664
0	91648	67644	37654
0	91654	67644	37644
0	91660	67644	37634
0	91666	67644	37624
0	91672	67644	37614
0	91678	67644	37604
0	91684	67644	37594
0	91690	67644	37584
0	91696	67644	37574
0	91702	67644	37564
0	91708	67644	37554
0	91714	67644	37544
0	91720	67644	37534
0	91726	67644	37524
0	91732	67644	37514
0	91738	67644	37504
0	91744	67644	37494
0	91750	67644	37484
0	91756	67644	37474
0	91762	67644	37464
0	91768	67644	37454
0	91774	67644	37444
0	91780	67644	37434
0	91786	67644	37424
0	91792	67644	37414
0	91798	67644	37404
0	91804	67644	37394
0	91810	67644	37384
0	91816	67644	37374
0	91822	67644	37364
0	91828	67644	37354
0	91834	67644	37344
0	91840	67644	37334
0	91846	67644	37324
0	91852	67644	37314
0	91858	67644	37304
0	91864	67644	37294
0	91870	67644	37284
0	91876	67644	37274
0	91882	67644	37264
0	91888	67644	37254
0	91894	67644	37244
0	91900	67644	37234
0	91906	67644	37224
0	91912	67644	37214
0	91918	67644	37204
0	91924	67644	37194
0	91930	67644	37184
0	91936	67644	37174
0	91942	67644	37164
0	91948	67644	37154
0	91954	67644	37144
0	91960	67644	37134
0	91966	67644	37124
0	91972	67644	37114
0	91978	67644	37104
0	91984	67644	37094
0	91990	67644	37084
0	91996	67644	37074
0	92002	67644	37064
0	92008	67644	37054
0	92014	67644	37044
0	92020	67644	37034
0	92026	67644	37024
0	92032	67644	37014
0	92038	67644	37004
0	92044	67644	36994
0	92050	67644	36984
0	92056	67644	36974
0	92062	67644	36964
0	92068	67644	36954
0	92074	67644	36944
0	92080	67644	36934
0	92086	67644	36924
0	92092	67644	36914
0	92098	67644	36904
0	92104	67644	36894
0	92110	67644	36884
0	92116	67644	36874
0	92122	67644	36864
0	92128	67644	36854
0	92134	67644	36844
0	92140	67644	36834
0	92146	67644	36824
0	92152	67644	36814
0	92158	67644	36804
0	92164	67644	36794
0	92170	67644	36784
0	92176	67644	36774
0	92182	67644	36764
0	92188	67644	36754
0	92194	67644	36744
0	92200	67644	36734
0	92206	67644	36724
0	92212	67644	36714
0	92218	67644	36704
0	92224	67644	36694
0	92230	67644	36684
0	92236	67644	36674
0	92242	67644	36664
0	92248	67644	36654
0	92254	67644	36644
0	92260	67644	36634
0	92266	67644	36624
0	92272	67644	36614
0	92278	67644	36604
0	92284	67644	36594
0	92290	67644	36584
0	92296	67644	36574
0	92302	67644	36564
0	92308	67644	36554
0	92314	67644	36544
0	92320	67644	36534
0	92326	67644	36524
0	92332	67644	36514
0	92338	67644	36504
0	92344	67644	36494
0	92350	67644	36484
0	92356	67644	36474
0	92362	67644	36464
0	92368	67644	36454
0	92374	67644	36444
0	92380	67644	36434
0	92386	67644	36424
0	92392	67644	36414
0	92398	67644	36404
0	92404	67644	36394
0	92410	67644	36384
0	92416	67644	36374
0	92422	67644	36364
0	92428	67644	36354
0	92434	67644	36344
0	92440	67644	36334
0	92446	67644	36324
0	92452	67644	36314
0	92458	67644	36304
0	92464	67644	36294
0	92470	67644	36284
0	92476	67644	36274
0	92482	67644	36264
0	92488	67644	36254
0	92494	67644	36244
0	92500	67644	36234
0	92506	67644	36224
0	92512	67644	36214
0	92518	67644	36204
0	92524	67644	36194
0	92530	67644	36184
0	92536	67644	36174
0	92542	67644	36164
0	92548	67644	36154
0	92554	67644	36144
0	92560	67644	36134
0	92566	67644	36124
0	92572	67644	36114
0	92578	67644	36104
0	92584	67644	36094
0	92590	67644	36084
0	92596	67644	36074
0	92602	67644	36064
0	92608	67644	36054
0	92614	67644	36044
0	92620	67644	36034
0	92626	67644	36024
0	92632	67644	36014
0	92638	67644	36004
0	92644	67644	35994
0	92650	67644	35984
0	92656	67644	35974
0	92662	67644	35964
0	92668	67644	35954
0	92674	67644	35944
0	92680	67644	35934
0	92686	67644	35924
0	92692	67644	35914
0	92698	67644	35904
0	92704	67644	35894
0	92710	67644	35884
0	92716	67644	35874
0	92722	67644	35864
0	92728	67644	35854
0	92734	67644	35844
0	92740	67644	35834
0	92746	67644	35824
0	92752	67644	35814
0	92758	67644	35804
0	92764	67644	35794
0	92770	67644	35784
0	92776	67644	35774
0	92782	67644	35764
0	92788	67644	35754
0	92794	67644	35744
0	92800	67644	35734
0	92806	67644	35724
0	92812	67644	35714
0	92818	67644	35704
0	92824	67644	35694
0	92830	67644	35684
0	92836	67644	35674
0	92842	67644	35664
0	92848	67644	35654
0	92854	67644	35644
0	92860	67644	35634
0	92866	67644	35624
0	92872	67644	35614
0	92878	67644	35604
0	92884	67644	35594
0	92890	67644	35584
0	92896	67644	35574
0	92902	67644	35564
0	92908	67644	35554
0	92914	67644	35544
0	92920	67644	35534
0	92926	67644	35524
0	92932	67644	35514
0	92938	67644	35504
0	92944	67644	35494
0	92950	67644	35484
0	92956	67644	35474
0	92962	67644	35464
0	92968	67644	35454
0	92974	67644	35444
0	92980	67644	35434
0	92986	67644	35424
0	92992	67644	35414
0	92998	67644	35404
0	93004	67644	35394
0	93010	67644	35384
0	93016	67644	35374
0	93022	67644	35364
0	93028	67644	35354
0	93034	67644	35344
0	93040	67644	35334
0	93046	67644	35324
0	93052	67644	35314
0	93058	67644	35304
0	93064	67644	35294
0	93070	67644	35284
0	93076	67644	35274
0	93082	67644	35264
0	93088	67644	35254
0	93094	67644	35244
0	93100	67644	35234
0	93106	67644	35224
0	93112	67644	35214
0	93118	67644	35204
0	93124	67644	35194
0	93130	67644	35184
0	93136	67644	35174
0	93142	67644	35164
0	93148	67644	35154
0	93154	67644	35144
0	93160	67644	35134
0	93166	67644	35124
0	93172	67644	35114
0	93178	67644	35104
0	93184	67644	35094
0	93190	67644	35084
0	93196	67644	35074
0	93202	67644	35064
0	93208	67644	35054
0	93214	67644	35044
0	93220	67644	35034
0	93226	67644	35024
0	93232	67644	35014
0	93238	67644	35004
0	93244	67644	34994
0	93250	67644	34984
0	93256	67644	34974
0	93262	67644	34964
0	93268	67644	34954
0	93274	67644	34944
0	93280	67644	34934
0	93286	67644	34924
0	93292	67644	34914
0	93298	67644	34904
0	93304	67644	34894
0	93310	67644	34884
0	93316	67644	34874
0	93322	67644	34864
0	93328	67644	34854
0	93334	67644	34844
0	93340	67644	34834
0	93346	67644	34824
0	93352	67644	34814
0	93358	67644	34804
0	93364	67644	34794
0	93370	67644	34784
0	93376	67644	34774
0	93382	67644	34764
0	93388	67644	34754
0	93394	67644	34744
0	93400	67644	34734
0	93406	67644	34724
0	93412	67644	34714
0	93418	67644	34704
0	93424	67644	34694
0	93430	67644	34684
0	93436	67644	34674
0	93442	67644	34664
0	93448	67644	34654
0	93454	67644	34644
0	93460	67644	34634
0	93466	67644	34624
0	93472	67644	34614
0	93478	67644	34604
0	93484	67644	34594
0	93490	67644	34584
0	93496	67644	34574
0	93502	67644	34564
0	93508	67644	34554
0	93514	67644	34544
0	93520	67644	34534
0	93526	67644	34524
0	93532	67644	34514
0	93538	67644	34504
0	93544	67644	34494
0	93550	67644	34484
0	93556	67644	34474
0	93562	67644	34464
0	93568	67644	34454
0	93574	67644	34444
0	93580	67644	34434
0	93586	67644	34424
0	93592	67644	34414
0	93598	67644	34404
0	93604	67644	34394
0	93610	67644	34384
0	93616	67644	34374
0	93622	67644	34364
0	93628	67644	34354
0	93634	67644	34344
0	93640	67644	34334
0	93646	67644	34324
0	93652	67644	34314
0	93658	67644	34304
0	93664	67644	34294
0	93670	67644	34284
0	93676	67644	34274
0	93682	67644	34264
0	93688	67644	34254
0	93694	67644	34244
0	93700	67644	34234
0	93706	67644	34224
0	93712	67644	34214
0	93718	67644	34204
0	93724	67644	34194
0	93730	67644	34184
0	93736	67644	34174
0	93742	67644	34164
0	93748	67644	34154
0	93754	67644	34144
0	93760	67644	34134
0	93766	67644	34124
0	93772	67644	34114
0	93778	67644	34104
0	93784	67644	34094
0	93790	67644	34084
0	93796	67644	34074
0	93802	67644	34064
0	93808	67644	34054
0	93814	67644	34044
0	93820	67644	34034
0	93826	67644	34024
0	93832	67644	34014
0	93838	67644	34004
0	93844	67644	33994
0	93850	67644	33984
0	93856	67644	33974
0	93862	67644	33964
0	93868	67644	33954
0	93874	67644	33944
0	93880	67644	33934
0	93886	67644	33924
0	93892	67644	33914
0	93898	67644	33904
0	93904	67644	33894
0	93910	67644	33884
0	93916	67644	33874
0	93922	67644	33864
0	93928	67644	33854
0	93934	67644	33844
0	93940	67644	33834
0	93946	67644	33824
0	93952	67644	33814
0	93958	67644	33804
0	93964	67644	33794
0	93970	67644	33784
0	93976	67644	33774
0	93982	67644	33764
0	93988	67644	33754
0	93994	67644	33744
0	94000	67644	33734
0	94006	67644	33724
0	94012	67644	33714
0	94018	67644	33704
0	94024	67644	33694
0	94030	67644	33684
0	94036	67644	33674
0	94042	67644	33664
0	94048	67644	33654
0	94054	67644	33644
0	94060	67644	33634
0	94066	67644	33624
0	94072	67644	33614
0	94078	67644	33604
0	94084	67644	33594
0	94090	67644	33584
0	94096	67644	33574
0	94102	67644	33564
0	94108	67644	33554
0	94114	67644	33544
0	94120	67644	33534
0	94126	67644	33524
0	94132	67644	33514
0	94138	67644	33504
0	94144	67644	33494
0	94150	67644	33484
0	94156	67644	33474
0	94162	67644	33464
0	94168	67644	33454
0	94174	67644	33444
0	94180	67644	33434
0	94186	67644	33424
0	94192	67644	33414
0	94198	67644	33404
0	94204	67644	33394
0	94210	67644	33384
0	94216	67644	33374
0	94222	67644	33364
0	94228	67644	33354
0	94234	67644	33344
0	94240	67644	33334
0	94246	67644	33324
0	94252	67644	33314
0	94258	67644	33304
0	94264	67644	33294
0	94270	67644	33284
0	94276	67644	33274
0	94282	67644	33264
0	94288	67644	33254
0	94294	67644	33244
0	94300	67644	33234
0	94306	67644	33224
0	94312	67644	33214
0	94318	67644	33204
0	94324	67644	33194
0	94330	67644	33184
0	94336	67644	33174
0	94342	67644	33164
0	94348	67644	33154
0	94354	67644	33144
0	94360	67644	33134
0	94366	67644	33124
0	94372	67644	33114
0	94378	67644	33104
0	94384	67644	33094
0	94390	67644	33084
0	94396	67644	33074
0	94402	67644	33064
0	94408	67644	33054
0	94414	67644	33044
0	94420	67644	33034
0	94426	67644	33024
0	94432	67644	33014
0	94438	67644	33004
0	94444	67644	32994
0	94450	67644	32984
0	94456	67644	32974
0	94462	67644	32964
0	94468	67644	32954
0	94474	67644	32944
0	94480	67644	32934
0	94486	67644	32924
0	94492	67644	32914
0	94498	67644	32904
0	94504	67644	32894
0	94510	67644	32884
0	94516	67644	32874
0	94522	67644	32864
0	94528	67644	32854
0	94534	67644	32844
0	94540	67644	32834
0	94546	67644	32824
0	94552	67644	32814
0	94558	67644	32804
0	94564	67644	32794
0	94570	67644	32784
0	94576	67644	32774
0	94582	67644	32764
0	94588	67644	32754
0	94594	67644	32744
0	94600	67644	32734
0	94606	67644	32724
0	94612	67644	32714
0	94618	67644	32704
0	94624	67644	32694
0	94630	67644	32684
0	94636	67644	32674
0	94642	67644	32664
0	94648	67644	32654
0	94654	67644	32644
0	94660	67644	32634
0	94666	67644	32624
0	94672	67644	32614
0	94678	67644	32604
0	94684	67644	32594
0	94690	67644	32584
0	94696	67644	32574
0	94702	67644	32564
0	94708	67644	32554
0	94714	67644	32544
0	94720	67644	32534
0	94726	67644	32524
0	94732	67644	32514
0	94738	67644	32504
0	94744	67644	32494
0	94750	67644	32484
0	94756	67644	32474
0	94762	67644	32464
0	94768	67644	32454
0	94774	67644	32444
0	94780	67644	32434
0	94786	67644	32424
0	94792	67644	32414
0	94798	67644	32404
0	94804	67644	32394
0	94810	67644	32384
0	94816	67644	32374
0	94822	67644	32364
0	94828	67644	32354
0	94834	67644	32344
0	94840	67644	32334
0	94846	67644	32324
0	94852	67644	32314
0	94858	67644	32304
0	94864	67644	32294
0	94870	67644	32284
0	94876	67644	32274
0	94882	67644	32264
0	94888	67644	32254
0	94894	67644	32244
0	94900	67644	32234
0	94906	67644	32224
0	94912	67644	32214
0	94918	67644	32204
0	94924	67644	32194
0	94930	67644	32184
0	94936	67644	32174
0	94942	67644	32164
0	94948	67644	32154
0	94954	67644	32144
0	94960	67644	32134
0	94966	67644	32124
0	94972	67644	32114
0	94978	67644	32104
0	94984	67644	32094
0	94990	67644	32084
0	94996	67644	32074
0	95002	67644	32064
0	95008	67644	32054
0	95014	67644	32044
0	95020	67644	32034
0	95026	67644	32024
0	95032	67644	32014
0	95038	67644	32004
0	95044	67644	31994
0	95050	67644	31984
0	95056	67644	31974
0	95062	67644	31964
0	95068	67644	31954
0	95074	67644	31944
0	95080	67644	31934
0	95086	67644	31924
0	95092	67644	31914
0	95098	67644	31904
0	95104	67644	31894
0	95110	67644	31884
0	95116	67644	31874
0	95122	67644	31864
0	95128	67644	31854
0	95134	67644	31844
0	95140	67644	31834
0	95146	67644	31824
0	95152	67644	31814
0	95158	67644	31804
0	95164	67644	31794
0	95170	67644	31784
0	95176	67644	31774
0	95182	67644	31764
0	95188	67644	31754
0	95194	67644	31744
0	95200	67644	31734
0	95206	67644	31724
0	95212	67644	31714
0	95218	67644	31704
0	95224	67644	31694
0	95230	67644	31684
0	95236	67644	31674
0	95242	67644	31664
0	95248	67644	31654
0	95254	67644	31644
0	95260	67644	31634
0	95266	67644	31624
0	95272	67644	31614
0	95278	67644	31604
0	95284	67644	31594
0	95290	67644	31584
0	95296	67644	31574
0	95302	67644	31564
0	95308	67644	31554
0	95314	67644	31544
0	95320	67644	31534
0	95326	67644	31524
0	95332	67644	31514
0	95338	67644	31504
0	95344	67644	31494
0	95350	67644	31484
0	95356	67644	31474
0	95362	67644	31464
0	95368	67644	31454
0	95374	67644	31444
0	95380	67644	31434
0	95386	67644	31424
0	95392	67644	31414
0	95398	67644	31404
0	95404	67644	31394
0	95410	67644	31384
0	95416	67644	31374
0	95422	67644	31364
0	95428	67644	31354
0	95434	67644	31344
0	95440	67644	31334
0	95446	67644	31324
0	95452	67644	31314
0	95458	67644	31304
0	95464	67644	31294
0	95470	67644	31284
0	95476	67644	31274
0	95482	67644	31264
0	95488	67644	31254
0	95494	67644	31244
0	95500	67644	31234
0	95506	67644	31224
0	95512	67644	31214
0	95518	67644	31204
0	95524	67644	31194
0	95530	67644	31184
0	95536	67644	31174
0	95542	67644	31164
0	95548	67644	31154
0	95554	67644	31144
0	95560	67644	31134
0	95566	67644	31124
0	95572	67644	31114
0	95578	67644	31104
0	95584	67644	31094
0	95590	67644	31084
0	95596	67644	31074
0	95602	67644	31064
0	95608	67644	31054
0	95614	67644	31044
0	95620	67644	31034
0	95626	67644	31024
0	95632	67644	31014
0	95638	67644	31004
0	95644	67644	30994
0	95650	67644	30984
0	95656	67644	30974
0	95662	67644	30964
0	95668	67644	30954
0	95674	67644	30944
0	95680	67644	30934
0	95686	67644	30924
0	95692	67644	30914
0	95698	67644	30904
0	95704	67644	30894
0	95710	67644	30884
0	95716	67644	30874
0	95722	67644	30864
0	95728	67644	30854
0	95734	67644	30844
0	95740	67644	30834
0	95746	67644	30824
0	95752	67644	30814
0	95758	67644	30804
0	95764	67644	30794
0	95770	67644	30784
0	95776	67644	30774
0	95782	67644	30764
0	95788	67644	30754
0	95794	67644	30744
0	95800	67644	30734
0	95806	67644	30724
0	95812	67644	30714
0	95818	67644	30704
0	95824	67644	30694
0	95830	67644	30684
0	95836	67644	30674
0	95842	67644	30664
0	95848	67644	30654
0	95854	67644	30644
0	95860	67644	30634
0	95866	67644	30624
0	95872	67644	30614
0	95878	67644	30604
0	95884	67644	30594
0	95890	67644	30584
0	95896	67644	30574
0	95902	67644	30564
0	95908	67644	30554
0	95914	67644	30544
0	95920	67644	30534
0	95926	67644	30524
0	95932	67644	30514
0	95938	67644	30504
0	95944	67644	30494
0	95950	67644	30484
0	95956	67644	30474
0	95962	67644	30464
0	95968	67644	30454
0	95974	67644	30444
0	95980	67644	30434
0	95986	67644	30424
0	95992	67644	30414
0	95998	67644	30404
0	96004	67644	30394
0	96010	67644	30384
0	96016	67644	30374
0	96022	67644	30364
0	96028	67644	30354
0	96034	67644	30344
0	96040	67644	30334
0	96046	67644	30324
0	96052	67644	30314
0	96058	67644	30304
0	96064	67644	30294
0	96070	67644	30284
0	96076	67644	30274
0	96082	67644	30264
0	96088	67644	30254
0	96094	67644	30244
0	96100	67644	30234
0	96106	67644	30224
0	96112	67644	30214
0	96118	67644	30204
0	96124	67644	30194
0	96130	67644	30184
0	96136	67644	30174
0	96142	67644	30164
0	96148	67644	30154
0	96154	67644	30144
0	96160	67644	30134
0	96166	67644	30124
0	96172	67644	30114
0	96178	67644	30104
0	96184	67644	30094
0	96190	67644	30084
0	96196	67644	30074
0	96202	67644	30064
0	96208	67644	30054
0	96214	67644	30044
0	96220	67644	30034
0	96226	67644	30024
0	96232	67644	30014
0	96238	67644	30004
0	96244	67644	29994
0	96250	67644	29984
0	96256	67644	29974
0	96262	67644	29964
0	96268	67644	29954
0	96274	67644	29944
0	96280	67644	29934
0	96286	67644	29924
0	96292	67644	29914
0	96298	67644	29904
0	96304	67644	29894
0	96310	67644	29884
0	96316	67644	29874
0	96322	67644	29864
0	96328	67644	29854
0	96334	67644	29844
0	96340	67644	29834
0	96346	67644	29824
0	96352	67644	29814
0	96358	67644	29804
0	96364	67644	29794
0	96370	67644	29784
0	96376	67644	29774
0	96382	67644	29764
0	96388	67644	29754
0	96394	67644	29744
0	96400	67644	29734
0	96406	67644	29724
0	96412	67644	29714
0	96418	67644	29704
0	96424	67644	29694
0	96430	67644	29684
0	96436	67644	29674
0	96442	67644	29664
0	96448	67644	29654
0	96454	67644	29644
0	96460	67644	29634
0	96466	67644	29624
0	96472	67644	29614
0	96478	67644	29604
0	96484	67644	29594
0	96490	67644	29584
0	96496	67644	29574
0	96502	67644	29564
0	96508	67644	29554
0	96514	67644	29544
0	96520	67644	29534
0	96526	67644	29524
0	96532	67644	29514
0	96538	67644	29504
0	96544	67644	29494
0	96550	67644	29484
0	96556	67644	29474
0	96562	67644	29464
0	96568	67644	29454
0	96574	67644	29444
0	96580	67644	29434
0	96586	67644	29424
0	96592	67644	29414
0	96598	67644	29404
0	96604	67644	29394
0	96610	67644	29384
0	96616	67644	29374
0	96622	67644	29364
0	96628	67644	29354
0	96634	67644	29344
0	96640	67644	29334
0	96646	67644	29324
0	96652	67644	29314
0	96658	67644	29304
0	96664	67644	29294
0	96670	67644	29284
0	96676	67644	29274
0	96682	67644	29264
0	96688	67644	29254
0	96694	67644	29244
0	96700	67644	29234
0	96706	67644	29224
0	96712	67644	29214
0	96718	67644	29204
0	96724	67644	29194
0	96730	67644	29184
0	96736	67644	29174
0	96742	67644	29164
0	96748	67644	29154
0	96754	67644	29144
0	96760	67644	29134
0	96766	67644	29124
0	96772	67644	29114
0	96778	67644	29104
0	96784	67644	29094
0	96790	67644	29084
0	96796	67644	29074
0	96802	67644	29064
0	96808	67644	29054
0	96814	67644	29044
0	96820	67644	29034
0	96826	67644	29024
0	96832	67644	29014
0	96838	67644	29004
0	96844	67644	28994
0	96850	67644	28984
0	96856	67644	28974
0	96862	67644	28964
0	96868	67644	28954
0	96874	67644	28944
0	96880	67644	28934
0	96886	67644	28924
0	96892	67644	28914
0	96898	67644	28904
0	96904	67644	28894
0	96910	67644	28884
0	96916	67644	28874
0	96922	67644	28864
[...]
0	175286	72205	3495
0	175300	72205	3485
0	175311	72205	3475
0	175325	72205	3465
0	175336	72205	3455
0	175350	72205	3445
0	175361	72205	3435
0	175375	72205	3425
0	175386	72205	3415
0	175400	72205	3405
0	175411	72205	3395
0	175425	72205	3385
0	175436	72205	3375
0	175450	72205	3365
0	175461	72205	3355
0	175475	72205	3345
0	175486	72205	3335
0	175500	72205	3325
0	175511	72205	3315
0	175525	72205	3305
0	175536	72205	3295
0	175550	72205	3285
0	175561	72205	3275
0	175575	72205	3265
0	175586	72205	3255
0	175600	72205	3245
0	175611	72205	3235
0	175625	72205	3225
0	175636	72205	3215
0	175650	72205	3205
0	175661	72205	3195
0	175675	72205	3185
0	175686	72205	3175
0	175700	72205	3165
0	175711	72205	3155
0	175725	72205	3145
0	175736	72205	3135
0	175750	72205	3125
0	175761	72205	3115
0	175775	72205	3105
0	175786	72205	3095
0	175800	72205	3085
0	175811	72205	3075
0	175825	72205	3065
0	175836	72205	3055
0	175850	72205	3045
0	175861	72205	3035
0	175875	72205	3025
0	175886	72205	3015
0	175900	72205	3005
0	175911	72205	2995
0	175925	72205	2985
0	175936	72205	2975
0	175950	72205	2965
0	175961	72205	2955
0	175975	72205	2945
0	175986	72205	2935
0	176000	72205	2925
0	176011	72205	2915
0	176025	72205	2905
0	176036	72205	2895
0	176050	72205	2885
0	176061	72205	2875
0	176075	72205	2865
0	176086	72205	2855
0	176100	72205	2845
0	176111	72205	2835
0	176125	72205	2825
0	176136	72205	2815
0	176150	72205	2805
0	176161	72205	2795
0	176175	72205	2785
0	176186	72205	2775
0	176200	72205	2765
0	176211	72205	2755
0	176225	72205	2745
0	176236	72205	2735
0	176250	72205	2725
0	176261	72205	2715
0	176275	72205	2705
0	176286	72205	2695
0	176300	72205	2685
0	176311	72205	2675
0	176325	72205	2665
0	176336	72205	2655
0	176350	72205	2645
0	176361	72205	2635
0	176375	72205	2625
0	176386	72205	2615
0	176400	72205	2605
0	176411	72205	2595
0	176425	72205	2585
0	176436	72205	2575
0	176450	72205	2565
0	176461	72205	2555
0	176475	72205	2545
0	176486	72205	2535
0	176500	72205	2525
0	176511	72205	615
0	176525	72205	1565
0	176536	72205	2515
0	176550	72205	605
0	176561	72205	1555
0	176575	72205	2505
0	176586	72205	595
0	176600	72205	1545
0	176611	72205	2495
0	176625	72205	585
0	176636	72205	1535
0	176650	72205	2485
0	176661	72205	575
0	176675	72205	1525
0	176686	72205	2475
0	176700	72205	565
0	176711	72205	1515
0	176725	72205	2465
0	176736	72205	555
0	176750	72205	1505
0	176761	72205	2455
0	176775	72205	545
0	176786	72205	1495
0	176800	72205	2445
0	176811	72205	535
0	176825	72205	1485
0	176836	72205	2435
0	176850	72205	525
0	176861	72205	1475
0	176875	72205	2425
0	176886	72205	515
0	176900	72205	1465
0	176911	72205	2415
0	176925	72205	505
0	176936	72205	1455
0	176950	72205	2405
0	176961	72205	495
0	176975	72205	1445
0	176986	72205	2395
0	177000	72205	485
0	177011	72205	1435
0	177021	72205	2385
0	177041	72206	476
0	177061	72208	1428
0	177097	72210	2380
0	177118	72216	476
0	177138	72218	1428
0	177174	72220	2380
0	177197	72226	476
0	177217	72228	1428
0	177259	72230	2380
0	177280	72236	476
0	177303	72238	1428
0	177342	72240	2380
0	177366	72246	476
0	177387	72248	1428
0	177426	72250	2380
0	177450	72256	476
0	177471	72258	1428
0	177511	72260	2380
0	177535	72266	476
0	177556	72268	1428
0	177596	72270	2380
0	177618	72276	476
0	177641	72278	1428
0	177682	72280	2380
0	177706	72286	476
0	177727	72288	1428
0	177769	72290	2380
0	177793	72296	476
0	177815	72298	1428
0	177858	72300	2380
0	177881	72306	476
0	177903	72308	1428
0	177948	72310	2380
0	177974	72316	476
0	177997	72318	1428
0	178041	72320	2380
0	178065	72326	476
0	178088	72328	1428
0	178132	72330	2380
0	178159	72336	476
0	178183	72338	1428
0	178228	72340	2380
0	178255	72346	476
0	178280	72348	1428
0	178326	72350	2380
0	178352	72356	476
0	178377	72358	1428
0	178426	72360	2380
0	178452	72366	476
0	178477	72368	1428
0	178524	72370	2380
0	178553	72376	476
0	178579	72378	1428
0	178627	72380	2380
0	178654	72386	476
0	178680	72388	1428
0	178728	72390	2380
0	178755	72396	476
0	178781	72398	1428
0	178829	72400	2380
0	178856	72406	476
0	178882	72408	1428
0	178930	72410	2380
0	178957	72416	476
0	178983	72418	1428
0	179031	72420	2380
0	179058	72426	476
0	179084	72428	1428
0	179132	72430	2380
0	179161	72436	476
0	179188	72438	1428
0	179237	72440	2380
0	179265	72446	476
0	179292	72448	1428
0	179341	72450	2380
0	179369	72456	476
0	179396	72458	1428
0	179445	72460	2380
0	179473	72466	476
0	179500	72468	1428
0	179549	72470	2380
0	179577	72476	476
0	179604	72478	1428
0	179656	72480	2380
0	179684	72486	476
0	179713	72488	1428
0	179763	72490	2380
0	179791	72496	476
0	179818	72498	1428
0	179868	72500	2380
0	179898	72506	476
0	179925	72508	1428
0	179976	72510	2380
0	180004	72516	476
0	180031	72518	1428
0	180084	72520	2380
0	180112	72526	476
0	180139	72528	1428
0	180190	72530	2380
0	180218	72536	476
0	180245	72538	1428
0	180296	72540	2380
0	180324	72546	476
0	180351	72548	1428
0	180402	72550	2380
0	180431	72556	476
0	180483	72566	476
0	180535	72576	476
0	180587	72586	476
0	180639	72596	476
0	180691	72606	476
0	180743	72616	476
0	180795	72626	476
0	180847	72636	476
0	180899	72646	476
0	180951	72656	476
0	181003	72666	476
0	181058	72676	476
0	181113	72686	476
0	181167	72696	476
0	181221	72706	476
0	181275	72716	476
0	181329	72726	476
0	181383	72736	476
0	181437	72746	476
0	181491	72756	476
0	181547	72766	476
0	181602	72776	476
0	181659	72786	476
0	181715	72796	476
0	181774	72806	476
0	181835	72816	476
0	181893	72826	476
0	181951	72836	476
0	182017	72846	476
0	182078	72856	476
0	182142	72866	476
0	182204	72876	476
0	182266	72886	476
0	182328	72896	476
0	182390	72906	476
0	182452	72916	476
0	182514	72926	476
0	182576	72936	476
0	182638	72946	476
0	182700	72956	476
0	182762	72966	476
0	182824	72976	476
0	182886	72986	476
0	182950	72996	476
0	183012	73006	476
0	183074	73016	476
0	183136	73026	476
0	183198	73036	476
0	183262	73046	476
0	183327	73056	476
0	183394	73066	476
0	183459	73076	476
0	183524	73086	476
0	183593	73096	476
0	183661	73106	476
0	183733	73116	476
0	183800	73126	476
0	183867	73136	476
0	183936	73146	476
0	184003	73156	476
0	184070	73166	476
0	184139	73176	476
0	184206	73186	476
0	184273	73196	476
0	184341	73206	476
0	184408	73216	476
0	184475	73226	476
0	184542	73236	476
0	184609	73246	476
0	184676	73256	476
0	184743	73266	476
0	184810	73276	476
0	184877	73286	476
0	184944	73296	476
0	185011	73306	476
0	185080	73316	476
0	185147	73326	476
0	185214	73336	476
0	185281	73346	476
0	185348	73356	476
0	185415	73366	476
0	185482	73376	476
0	185551	73386	476
0	185619	73396	476
0	185687	73406	476
0	185755	73416	476
0	185825	73426	476
0	185895	73436	476
0	185963	73446	476
0	186033	73456	476
0	186104	73466	476
0	186174	73476	476
0	186244	73486	476
0	186314	73496	476
0	186386	73506	476
0	186459	73516	476
0	186531	73526	476
0	186603	73536	476
0	186675	73546	476
0	186747	73556	476
0	186821	73566	476
0	186893	73576	476
0	186965	73586	476
0	187037	73596	476
0	187109	73606	476
0	187181	73616	476
0	187236	73626	476
0	187294	73636	476
0	187352	73646	476
0	187410	73656	476
0	187468	73666	476
0	187526	73676	476
0	187584	73686	476
0	187642	73696	476
0	187700	73706	476
0	187760	73716	476
0	187818	73726	476
0	187876	73736	476
0	187934	73746	476
0	187994	73756	476
0	188053	73766	476
0	188117	73776	476
0	188177	73786	476
0	188237	73796	476
0	188297	73806	476
0	188357	73816	476
0	188419	73826	476
0	188479	73836	476
0	188539	73846	476
0	188601	73856	476
0	188661	73866	476
0	188721	73876	476
0	188783	73886	476
0	188843	73896	476
0	188905	73906	476
0	188966	73916	476
0	189027	73926	476
0	189088	73936	476
0	189149	73946	476
0	189212	73956	476
0	189274	73966	476
0	189334	73976	476
0	189396	73986	476
0	189457	73996	476
0	189518	74006	476
0	189579	74016	476
0	189640	74026	476
0	189703	74036	476
0	189764	74046	476
0	189827	74056	476
0	189891	74066	476
0	189953	74076	476
0	190015	74086	476
0	190077	74096	476
0	190143	74106	476
0	190206	74116	476
0	190269	74126	476
0	190334	74136	476
0	190398	74146	476
0	190461	74156	476
0	190524	74166	476
0	190587	74176	476
0	190653	74186	476
0	190720	74196	476
0	190785	74206	476
0	190852	74216	476
0	190917	74226	476
0	190984	74236	476
0	191049	74246	476
0	191114	74256	476
0	191179	74266	476
0	191244	74276	476
0	191311	74286	476
0	191378	74296	476
0	191445	74306	476
0	191511	74316	476
0	191577	74326	476
0	191643	74336	476
0	191711	74346	476
0	191778	74356	476
0	191847	74366	476
0	191917	74376	476
0	191985	74386	476
0	192055	74396	476
0	192125	74406	476
0	192193	74416	476
0	192260	74426	476
0	192327	74436	476
0	192394	74446	476
0	192461	74456	476
0	192530	74466	476
0	192597	74476	476
0	192666	74486	476
0	192735	74496	476
0	192804	74506	476
0	192871	74516	476
0	192938	74526	476
0	193005	74536	476
0	193072	74546	476
0	193141	74556	476
0	193208	74566	476
0	193275	74576	476
0	193344	74586	476
0	193411	74596	476
0	193478	74606	476
0	193547	74616	476
0	193615	74626	476
0	193683	74636	476
0	193751	74646	476
0	193821	74656	476
0	193890	74666	476
0	193959	74676	476
0	194030	74686	476
0	194099	74696	476
0	194168	74706	476
0	194239	74716	476
0	194308	74726	476
0	194379	74736	476
0	194449	74746	476
0	194521	74756	476
0	194591	74766	476
0	194661	74776	476
0	194731	74786	476
0	194801	74796	476
0	194871	74806	476
0	194941	74816	476
0	195013	74826	476
0	195083	74836	476
0	195153	74846	476
0	195223	74856	476
0	195293	74866	476
0	195363	74876	476
0	195433	74886	476
0	195503	74896	476
0	195573	74906	476
0	195645	74916	476
0	195720	74926	476
0	195793	74936	476
0	195866	74946	476
0	195941	74956	476
0	196014	74966	476
0	196087	74976	476
0	196160	74986	476
0	196232	74996	476
0	196304	75006	476
0	196373	75016	476
0	196443	75026	476
0	196512	75036	476
0	196581	75046	476
0	196650	75056	476
0	196721	75066	476
0	196792	75076	476
0	196862	75086	476
0	196932	75096	476
0	197002	75106	476
0	197073	75116	476
0	197143	75126	476
0	197213	75136	476
0	197283	75146	476
0	197353	75156	476
0	197427	75166	476
0	197497	75176	476
0	197567	75186	476
0	197637	75196	476
0	197710	75206	476
0	197781	75216	476
0	197851	75226	476
0	197921	75236	476
0	197991	75246	476
0	198061	75256	476
0	198134	75266	476
0	198209	75276	476
0	198280	75286	476
0	198351	75296	476
0	198422	75306	476
0	198493	75316	476
0	198566	75326	476
0	198637	75336	476
0	198708	75346	476
0	198778	75356	476
0	198848	75366	476
0	198918	75376	476
0	198988	75386	476
0	199060	75396	476
0	199131	75406	476
0	199202	75416	476
0	199273	75426	476
0	199344	75436	476
0	199419	75446	476
0	199491	75456	476
0	199563	75466	476
0	199633	75476	476
0	202173	75966	956
0	202194	75966	946
0	202200	75966	936
0	202206	75966	926
0	202212	75966	916
0	202218	75966	906
0	202224	75966	896
0	202230	75966	886
0	202236	75966	876
0	202242	75966	866
0	202248	75966	856
0	202254	75966	846
0	202260	75966	836
0	202266	75966	826
0	202272	75966	816
0	202278	75966	806
0	202284	75966	796
0	202290	75966	786
0	202296	75966	776
0	202302	75966	766
0	202308	75966	756
0	202314	75966	746
0	202320	75966	736
0	202326	75966	726
0	202332	75966	716
0	202338	75966	706
0	202344	75966	696
0	202350	75966	686
0	202356	75966	676
0	202362	75966	666
0	202368	75966	656
0	202374	75966	646
0	202380	75966	636
0	202386	75966	626
0	202392	75966	616
0	202398	75966	606
0	202404	75966	596
0	202410	75966	586
0	202416	75966	576
0	202422	75966	566
0	202428	75966	556
0	202434	75966	546
0	202440	75966	536
0	202446	75966	526
0	202452	75966	516
0	202458	75966	506
0	202464	75966	496
0	202470	75966	486
0	202476	75966	476
0	202530	75976	476
0	202596	75986	476
0	202662	75996	476
0	202728	76006	476
0	202794	76016	476
0	202860	76026	476
0	202925	76036	476
0	202991	76046	476
0	203055	76056	476
0	203119	76066	476
0	203185	76076	476
0	203248	76086	476
0	203312	76096	476
0	203375	76106	476
0	203440	76116	476
0	203503	76126	476
0	203566	76136	476
0	203629	76146	476
0	203692	76156	476
0	203755	76166	476
0	203817	76176	476
0	203879	76186	476
0	203941	76196	476
0	204006	76206	476
0	204069	76216	476
0	204132	76226	476
0	204195	76236	476
0	204258	76246	476
0	204323	76256	476
0	204387	76266	476
0	204453	76276	476
0	204518	76286	476
0	204583	76296	476
0	204652	76306	476
0	204718	76316	476
0	210141	77646	1796
0	210167	77646	1786
0	210173	77646	1776
0	210179	77646	1766
0	210185	77646	1756
0	210191	77646	1746
0	210197	77646	1736
0	210203	77646	1726
0	210209	77646	1716
0	210215	77646	1706
0	210221	77646	1696
0	210227	77646	1686
0	210233	77646	1676
0	210239	77646	1666
0	210245	77646	1656
0	210251	77646	1646
0	210257	77646	1636
0	210263	77646	1626
0	210269	77646	1616
0	210275	77646	1606
0	210281	77646	1596
0	210287	77646	1586
0	210293	77646	1576
0	210299	77646	1566
0	210305	77646	1556
0	210311	77646	1546
0	210317	77646	1536
0	210323	77646	1526
0	210329	77646	1516
0	210335	77646	1506
0	210341	77646	1496
0	210347	77646	1486
0	210353	77646	1476
0	210359	77646	1466
0	210365	77646	1456
0	210371	77646	1446
0	210377	77646	1436
0	210383	77646	1426
0	210389	77646	1416
0	210395	77646	1406
0	210401	77646	1396
0	210407	77646	1386
0	210413	77646	1376
0	210419	77646	1366
0	210425	77646	1356
0	210431	77646	1346
0	210437	77646	1336
0	210443	77646	1326
0	210449	77646	1316
0	210455	77646	1306
0	210461	77646	1296
0	210467	77646	1286
0	210473	77646	1276
0	210479	77646	1266
0	210485	77646	1256
0	210491	77646	1246
0	210497	77646	1236
0	210503	77646	1226
0	210509	77646	1216
0	210515	77646	1206
0	210521	77646	1196
0	210527	77646	1186
0	210533	77646	1176
0	210539	77646	1166
0	210545	77646	1156
0	210551	77646	1146
0	210557	77646	1136
0	210563	77646	1126
0	210569	77646	1116
0	210575	77646	1106
0	210581	77646	1096
0	210587	77646	1086
0	210593	77646	1076
0	210599	77646	1066
0	210605	77646	1056
0	210611	77646	1046
0	210617	77646	1036
0	210623	77646	1026
0	210629	77646	1016
0	210635	77646	1006
0	210641	77646	996
0	210647	77646	986
0	210653	77646	976
0	210659	77646	966
0	210665	77646	956
0	210671	77646	946
0	210677	77646	936
0	210683	77646	926
0	210689	77646	916
0	210695	77646	906
0	210701	77646	896
0	210707	77646	886
0	210713	77646	876
0	210719	77646	866
0	210725	77646	856
0	210731	77646	846
0	210737	77646	836
0	210743	77646	826
0	210749	77646	816
0	210755	77646	806
0	210761	77646	796
0	210767	77646	786
0	210773	77646	776
0	210779	77646	766
0	210785	77646	756
0	210791	77646	746
0	210797	77646	736
0	210803	77646	726
0	210809	77646	716
0	210815	77646	706
0	210821	77646	696
0	210827	77646	686
0	210833	77646	676
0	210839	77646	666
0	210845	77646	656
0	210851	77646	646
0	210857	77646	636
0	210863	77646	626
0	210869	77646	616
0	210875	77646	606
0	210881	77646	596
0	210887	77646	586
0	210893	77646	576
0	210899	77646	566
0	210905	77646	556
0	210911	77646	546
0	210917	77646	536
0	210923	77646	526
0	210929	77646	516
0	210935	77646	506
0	210941	77646	496
0	210947	77646	486
0	210953	77646	476
0	210996	77656	476
0	211059	77666	476
0	211124	77676	476
0	211188	77686	476
0	211252	77696	476
0	211316	77706	476
0	211380	77716	476
0	211444	77726	476
0	211511	77736	476
0	211576	77746	476
0	211642	77756	476
0	211708	77766	476
0	211774	77776	476
0	211838	77786	476
0	211902	77796	476
0	211967	77806	476
0	212034	77816	476
0	212098	77826	476
0	212162	77836	476
0	212226	77846	476
0	212290	77856	476
0	212354	77866	476
0	212418	77876	476
0	212483	77886	476
0	212548	77896	476
0	212613	77906	476
0	212677	77916	476
0	212741	77926	476
0	212805	77936	476
0	212866	77946	476
0	212927	77956	476
0	212988	77966	476
0	213049	77976	476
0	213111	77986	476
0	213174	77996	476
0	213237	78006	476
0	213299	78016	476
0	213361	78026	476
0	213424	78036	476
0	213486	78046	476
0	213548	78056	476
0	213610	78066	476
0	213672	78076	476
0	213734	78086	476
0	213796	78096	476
0	213858	78106	476
0	213920	78116	476
0	213982	78126	476
0	214045	78136	476
0	214106	78146	476
0	214182	78156	476
0	214242	78166	476
0	214302	78176	476
0	214364	78186	476
0	214424	78196	476
0	214484	78206	476
0	214544	78216	476
0	214604	78226	476
0	214667	78236	476
0	214732	78246	476
0	214793	78256	476
0	214854	78266	476
0	214915	78276	476
0	214977	78286	476
0	215038	78296	476
0	215100	78306	476
0	215163	78316	476
0	215223	78326	476
0	215284	78336	476
0	215346	78346	476
0	215407	78356	476
0	215468	78366	476
0	215529	78376	476
0	215590	78386	476
0	215653	78396	476
0	215714	78406	476
0	218085	78986	1046
0	218102	78986	1036
0	218108	78986	1026
0	218114	78986	1016
0	218120	78986	1006
0	218126	78986	996
0	218132	78986	986
0	218138	78986	976
0	218144	78986	966
0	218150	78986	956
0	218156	78986	946
0	218162	78986	936
0	218168	78986	926
0	218174	78986	916
0	218180	78986	906
0	218186	78986	896
0	218192	78986	886
0	218198	78986	876
0	218204	78986	866
0	218210	78986	856
0	218216	78986	846
0	218222	78986	836
0	218228	78986	826
0	218234	78986	816
0	218240	78986	806
0	218246	78986	796
0	218252	78986	786
0	218258	78986	776
0	218264	78986	766
0	218270	78986	756
0	218276	78986	746
0	218282	78986	736
0	218288	78986	726
0	218294	78986	716
0	218300	78986	706
0	218306	78986	696
0	218312	78986	686
0	218318	78986	676
0	218324	78986	666
0	218330	78986	656
0	218336	78986	646
0	218342	78986	636
0	218348	78986	626
0	218354	78986	616
0	218360	78986	606
0	218366	78986	596
0	218372	78986	586
0	218378	78986	576
0	218384	78986	566
0	218390	78986	556
0	218396	78986	546
0	218402	78986	536
0	218408	78986	526
0	218414	78986	516
0	218420	78986	506
0	218426	78986	496
0	218432	78986	486
0	218438	78986	476
0	218494	78996	476
0	218561	79006	476
0	218628	79016	476
0	218695	79026	476
0	218762	79036	476
0	218829	79046	476
0	218896	79056	476
0	218964	79066	476
0	219030	79076	476
0	219096	79086	476
0	219162	79096	476
0	219228	79106	476
0	219294	79116	476
0	219360	79126	476
0	219426	79136	476
0	219492	79146	476
0	219558	79156	476
0	219624	79166	476
0	219687	79176	476
0	219750	79186	476
0	219813	79196	476
0	219876	79206	476
0	219938	79216	476
0	220002	79226	476
0	220064	79236	476
0	220125	79246	476
0	220188	79256	476
0	220249	79266	476
0	220310	79276	476
0	220371	79286	476
0	220432	79296	476
0	220492	79306	476
0	220553	79316	476
0	220613	79326	476
0	220673	79336	476
0	220733	79346	476
0	220793	79356	476
0	220853	79366	476
0	220914	79376	476
0	220976	79386	476
0	221037	79396	476
0	221098	79406	476
0	221161	79416	476
0	221225	79426	476
0	221286	79436	476
0	221347	79446	476
0	221408	79456	476
0	221469	79466	476
0	221529	79476	476
0	221589	79486	476
0	221649	79496	476
0	221709	79506	476
0	221769	79516	476
0	221829	79526	476
0	221888	79536	476
0	221947	79546	476
0	222006	79556	476
0	222065	79566	476
0	222124	79576	476
0	222183	79586	476
0	222242	79596	476
0	222301	79606	476
0	222360	79616	476
0	222419	79626	476
0	222478	79636	476
0	224004	80126	956
0	224021	80126	946
0	224027	80126	936
0	224033	80126	926
0	224039	80126	916
0	224045	80126	906
0	224051	80126	896
0	224057	80126	886
0	224063	80126	876
0	224069	80126	866
0	224075	80126	856
0	224081	80126	846
0	224087	80126	836
0	224093	80126	826
0	224099	80126	816
0	224105	80126	806
0	224111	80126	796
0	224117	80126	786
0	224123	80126	776
0	224129	80126	766
0	224135	80126	756
0	224141	80126	746
0	224147	80126	736
0	224153	80126	726
0	224159	80126	716
0	224165	80126	706
0	224171	80126	696
0	224177	80126	686
0	224183	80126	676
0	224189	80126	666
0	224195	80126	656
0	224201	80126	646
0	224207	80126	636
0	224213	80126	626
0	224219	80126	616
0	224225	80126	606
0	224231	80126	596
0	224237	80126	586
0	224243	80126	576
0	224249	80126	566
0	224255	80126	556
0	224261	80126	546
0	224267	80126	536
0	224273	80126	526
0	224279	80126	516
0	224285	80126	506
0	224291	80126	496
0	224297	80126	486
0	224303	80126	476
0	224320	80136	476
0	224345	80146	476
0	224370	80156	476
0	224395	80166	476
0	224420	80176	476
0	224449	80186	476
0	224472	80196	476
0	224495	80206	476
0	224518	80216	476
0	224542	80226	476
0	224565	80236	476
0	224588	80246	476
0	224611	80256	476
0	224636	80266	476
0	224659	80276	476
0	224683	80286	476
0	224707	80296	476
0	224729	80306	476
0	224752	80316	476
0	224774	80326	476
0	224796	80336	476
0	224818	80346	476
0	224841	80356	476
0	224863	80366	476
0	224885	80376	476
0	224907	80386	476
0	224929	80396	476
0	224951	80406	476
0	224975	80416	476
0	224996	80426	476
0	225018	80436	476
0	225039	80446	476
0	225060	80456	476
0	225082	80466	476

