version 2
run General-0-20250116-12:09:55-162216
attr configname General
attr datetime 20250116-12:09:55
attr experiment General
attr inifile shaw.ini
attr iterationvars ""
attr iterationvarsf ""
attr measurement ""
attr network src.dtnsim
attr processid 162216
attr repetition 0
attr replication #0
attr resultdir results
attr runnumber 0
attr seedset 0
param dtnsim.central.contactsFile "\"contactPlan/Contacts.txt\""
param dtnsim.central.contactsFile_A "\"contactPlan/Contacts.txt\""
param dtnsim.central.contactsFile_B "\"contactPlan/Contacts.txt\""
param dtnsim.central.contactIdsToDelete_from_celestialA "\"2 26 31 47 53 82 85 88 91 98 99 104 154 155 160 163 179 191 196 198 199 215 217 235 237 282 298 299 307 308 313 318 326 358 362 366 369 370 383 386 393 404 406 409 414 417 423 424 426 429 432 433 439 446 460\""
param dtnsim.central.contactIdsToDelete_from_celestialB "\"5 22 36 48 62 71 79 81 87 89 105 116 130 133 142 147 165 174 183 202 211 221 222 226 229 234 248 266 293 294 296 317 325 329 340 354 376 379 387 394 399 427 435 454 459\""
param dtnsim.central.celestialA_nodes "\"1 2 3\""
param dtnsim.central.celestialB_nodes "\"4 5 6\""
param dtnsim.central.locallyfaultsAware true
param dtnsim.central.mode_two_celestial true
param dtnsim.nodesNumber 6
param dtnsim.node[1].icon "\"receiverdish\""
param dtnsim.node[2..5].icon "\"satellite\""
param dtnsim.node[6].icon "\"receiverdish\""
param dtnsim.node[*].dtn.routing "\"cgrModel350\""
param dtnsim.node[*].dtn.routingType "\"routeListType:allPaths-firstEnding,volumeAware:allContacts,extensionBlock:on,contactPlan:global\""
param dtnsim.node[1].app.enable true
param dtnsim.node[1].app.bundlesNumber "\"8640\""
param dtnsim.node[1].app.start "\"0\""
param dtnsim.node[1].app.destinationEid "\"6\""
param dtnsim.node[1].app.size "\"1500\""
param dtnsim.node[1].app.interval 10

vector 0 dtnsim.node[6].app appBundleReceivedDelayvec:vector ETV
attr interpolationmode none
attr source appBundleReceivedDelay
attr title "appBundleReceivedDelayvec, vector"
0	24273	13597	13597
0	24279	13597	13587
0	24285	13597	13577
0	24291	13597	13567
0	24297	13597	13557
0	24303	13597	13547
0	24309	13597	13537
0	24315	13597	13527
0	24321	13597	13517
0	24327	13597	13507
0	24333	13597	13497
0	24339	13597	13487
0	24345	13597	13477
0	24351	13597	13467
0	24357	13597	13457
0	24363	13597	13447
0	24369	13597	13437
0	24375	13597	13427
0	24381	13597	13417
0	24387	13597	13407
0	24393	13597	13397
0	24399	13597	13387
0	24405	13597	13377
0	24411	13597	13367
0	24417	13597	13357
0	24423	13597	13347
0	24429	13597	13337
0	24435	13597	13327
0	24441	13597	13317
0	24447	13597	13307
0	24453	13597	13297
0	24459	13597	13287
0	24465	13597	13277
0	24471	13597	13267
0	24477	13597	13257
0	24483	13597	13247
0	24489	13597	13237
0	24495	13597	13227
0	24501	13597	13217
0	24507	13597	13207
0	24513	13597	13197
0	24519	13597	13187
0	24525	13597	13177
0	24531	13597	13167
0	24537	13597	13157
0	24543	13597	13147
0	24549	13597	13137
0	24555	13597	13127
0	24561	13597	13117
0	24567	13597	13107
0	24573	13597	13097
0	24579	13597	13087
0	24585	13597	13077
0	24591	13597	13067
0	24597	13597	13057
0	24603	13597	13047
0	24609	13597	13037
0	24615	13597	13027
0	24621	13597	13017
0	24627	13597	13007
0	24633	13597	12997
0	24639	13597	12987
0	24645	13597	12977
0	24651	13597	12967
0	24657	13597	12957
0	24663	13597	12947
0	24669	13597	12937
0	24675	13597	12927
0	24681	13597	12917
0	24687	13597	12907
0	24693	13597	12897
0	24699	13597	12887
0	24705	13597	12877
0	24711	13597	12867
0	24717	13597	12857
0	24723	13597	12847
0	24729	13597	12837
0	24735	13597	12827
0	24741	13597	12817
0	24747	13597	12807
0	24753	13597	12797
0	24759	13597	12787
0	24765	13597	12777
0	24771	13597	12767
0	24777	13597	12757
0	24783	13597	12747
0	24789	13597	12737
0	24795	13597	12727
0	24801	13597	12717
0	24807	13597	12707
0	24813	13597	12697
0	24819	13597	12687
0	24825	13597	12677
0	24831	13597	12667
0	24837	13597	12657
0	24843	13597	12647
0	24849	13597	12637
0	24855	13597	12627
0	24861	13597	12617
0	24867	13597	12607
0	24873	13597	12597
0	24879	13597	12587
0	24885	13597	12577
0	24891	13597	12567
0	24897	13597	12557
0	24903	13597	12547
0	24909	13597	12537
0	24915	13597	12527
0	24921	13597	12517
0	24927	13597	12507
0	24933	13597	12497
0	24939	13597	12487
0	24945	13597	12477
0	24951	13597	12467
0	24957	13597	12457
0	24963	13597	12447
0	24969	13597	12437
0	24975	13597	12427
0	24981	13597	12417
0	24987	13597	12407
0	24993	13597	12397
0	24999	13597	12387
0	25005	13597	12377
0	25011	13597	12367
0	25017	13597	12357
0	25023	13597	12347
0	25029	13597	12337
0	25035	13597	12327
0	25041	13597	12317
0	25047	13597	12307
0	25053	13597	12297
0	25059	13597	12287
0	25065	13597	12277
0	25071	13597	12267
0	25077	13597	12257
0	25083	13597	12247
0	25089	13597	12237
0	25095	13597	12227
0	25101	13597	12217
0	25107	13597	12207
0	25113	13597	12197
0	25119	13597	12187
0	25125	13597	12177
0	25131	13597	12167
0	25137	13597	12157
0	25143	13597	12147
0	25149	13597	12137
0	25155	13597	12127
0	25161	13597	12117
0	25167	13597	12107
0	25173	13597	12097
0	25179	13597	12087
0	25185	13597	12077
0	25191	13597	12067
0	25197	13597	12057
0	25203	13597	12047
0	25209	13597	12037
0	25215	13597	12027
0	25221	13597	12017
0	25227	13597	12007
0	25233	13597	11997
0	25239	13597	11987
0	25245	13597	11977
0	25251	13597	11967
0	25257	13597	11957
0	25263	13597	11947
0	25269	13597	11937
0	25275	13597	11927
0	25281	13597	11917
0	25287	13597	11907
0	25293	13597	11897
0	25299	13597	11887
0	25305	13597	11877
0	25311	13597	11867
0	25317	13597	11857
0	25323	13597	11847
0	25329	13597	11837
0	25335	13597	11827
0	25341	13597	11817
0	25347	13597	11807
0	25353	13597	11797
0	25359	13597	11787
0	25365	13597	11777
0	25371	13597	11767
0	25377	13597	11757
0	25383	13597	11747
0	25389	13597	11737
0	25395	13597	11727
0	25401	13597	11717
0	25407	13597	11707
0	25413	13597	11697
0	25419	13597	11687
0	25425	13597	11677
0	25431	13597	11667
0	25437	13597	11657
0	25443	13597	11647
0	25449	13597	11637
0	25455	13597	11627
0	25461	13597	11617
0	25467	13597	11607
0	25473	13597	11597
0	25479	13597	11587
0	25485	13597	11577
0	25491	13597	11567
0	25497	13597	11557
0	25503	13597	11547
0	25509	13597	11537
0	25515	13597	11527
0	25521	13597	11517
0	25527	13597	11507
0	25533	13597	11497
0	25539	13597	11487
0	25545	13597	11477
0	25551	13597	11467
0	25557	13597	11457
0	25563	13597	11447
0	25569	13597	11437
0	25575	13597	11427
0	25581	13597	11417
0	25587	13597	11407
0	25593	13597	11397
0	25599	13597	11387
0	25605	13597	11377
0	25611	13597	11367
0	25617	13597	11357
0	25623	13597	11347
0	25629	13597	11337
0	25635	13597	11327
0	25641	13597	11317
0	25647	13597	11307
0	25653	13597	11297
0	25659	13597	11287
0	25665	13597	11277
0	25671	13597	11267
0	25677	13597	11257
0	25683	13597	11247
0	25689	13597	11237
0	25695	13597	11227
0	25701	13597	11217
0	25707	13597	11207
0	25713	13597	11197
0	25719	13597	11187
0	25725	13597	11177
0	25731	13597	11167
0	25737	13597	11157
0	25743	13597	11147
0	25749	13597	11137
0	25755	13597	11127
0	25761	13597	11117
0	25767	13597	11107
0	25773	13597	11097
0	25779	13597	11087
0	25785	13597	11077
0	25791	13597	11067
0	25797	13597	11057
0	25803	13597	11047
0	25809	13597	11037
0	25815	13597	11027
0	25821	13597	11017
0	25827	13597	11007
0	25833	13597	10997
0	25839	13597	10987
0	25845	13597	10977
0	25851	13597	10967
0	25857	13597	10957
0	25863	13597	10947
0	25869	13597	10937
0	25875	13597	10927
0	25881	13597	10917
0	25887	13597	10907
0	25893	13597	10897
0	25899	13597	10887
0	25905	13597	10877
0	25911	13597	10867
0	25917	13597	10857
0	25923	13597	10847
0	25929	13597	10837
0	25935	13597	10827
0	25941	13597	10817
0	25947	13597	10807
0	25953	13597	10797
0	25959	13597	10787
0	25965	13597	10777
0	25971	13597	10767
0	25977	13597	10757
0	25983	13597	10747
0	25989	13597	10737
0	25995	13597	10727
0	26001	13597	10717
0	26007	13597	10707
0	26013	13597	10697
0	26019	13597	10687
0	26025	13597	10677
0	26031	13597	10667
0	26037	13597	10657
0	26043	13597	10647
0	26049	13597	10637
0	26055	13597	10627
0	26061	13597	10617
0	26067	13597	10607
0	26073	13597	10597
0	26079	13597	10587
0	26085	13597	10577
0	26091	13597	10567
0	26097	13597	10557
0	26103	13597	10547
0	26109	13597	10537
0	26115	13597	10527
0	26121	13597	10517
0	26127	13597	10507
0	26133	13597	10497
0	26139	13597	10487
0	26145	13597	10477
0	26151	13597	10467
0	26157	13597	10457
0	26163	13597	10447
0	26169	13597	10437
0	26175	13597	10427
0	26181	13597	10417
0	26187	13597	10407
0	26193	13597	10397
0	26199	13597	10387
0	26205	13597	10377
0	26211	13597	10367
0	26217	13597	10357
0	26223	13597	10347
0	26229	13597	10337
0	26235	13597	10327
0	26241	13597	10317
0	26247	13597	10307
0	26253	13597	10297
0	26259	13597	10287
0	26265	13597	10277
0	26271	13597	10267
0	26277	13597	10257
0	26283	13597	10247
0	26289	13597	10237
0	26295	13597	10227
0	26301	13597	10217
0	26307	13597	10207
0	26313	13597	10197
0	26319	13597	10187
0	26325	13597	10177
0	26331	13597	10167
0	26337	13597	10157
0	26343	13597	10147
0	26349	13597	10137
0	26355	13597	10127
0	26361	13597	10117
0	26367	13597	10107
0	26373	13597	10097
0	26379	13597	10087
0	26385	13597	10077
0	26391	13597	10067
0	26397	13597	10057
0	26403	13597	10047
0	26409	13597	10037
0	26415	13597	10027
0	26421	13597	10017
0	26427	13597	10007
0	26433	13597	9997
0	26439	13597	9987
0	26445	13597	9977
0	26451	13597	9967
0	26457	13597	9957
0	26463	13597	9947
0	26469	13597	9937
0	26475	13597	9927
0	26481	13597	9917
0	26487	13597	9907
0	26493	13597	9897
0	26499	13597	9887
0	26505	13597	9877
0	26511	13597	9867
0	26517	13597	9857
0	26523	13597	9847
0	26529	13597	9837
0	26535	13597	9827
0	26541	13597	9817
0	26547	13597	9807
0	26553	13597	9797
0	26559	13597	9787
0	26565	13597	9777
0	26571	13597	9767
0	26577	13597	9757
0	26583	13597	9747
0	26589	13597	9737
0	26595	13597	9727
0	26601	13597	9717
0	26607	13597	9707
0	26613	13597	9697
0	26619	13597	9687
0	26625	13597	9677
0	26631	13597	9667
0	26637	13597	9657
0	26643	13597	9647
0	26649	13597	9637
0	26655	13597	9627
0	26661	13597	9617
0	26667	13597	9607
0	26673	13597	9597
0	26679	13597	9587
0	26685	13597	9577
0	26691	13597	9567
0	26697	13597	9557
0	26703	13597	9547
0	26709	13597	9537
0	26715	13597	9527
0	26721	13597	9517
0	26727	13597	9507
0	26733	13597	9497
0	26739	13597	9487
0	26745	13597	9477
0	26751	13597	9467
0	26757	13597	9457
0	26763	13597	9447
0	26769	13597	9437
0	26775	13597	9427
0	26781	13597	9417
0	26787	13597	9407
0	26793	13597	9397
0	26799	13597	9387
0	26805	13597	9377
0	26811	13597	9367
0	26817	13597	9357
0	26823	13597	9347
0	26829	13597	9337
0	26835	13597	9327
0	26841	13597	9317
0	26847	13597	9307
0	26853	13597	9297
0	26859	13597	9287
0	26865	13597	9277
0	26871	13597	9267
0	26877	13597	9257
0	26883	13597	9247
0	26889	13597	9237
0	26895	13597	9227
0	26901	13597	9217
0	26907	13597	9207
0	26913	13597	9197
0	26919	13597	9187
0	26925	13597	9177
0	26931	13597	9167
0	26937	13597	9157
0	26943	13597	9147
0	26949	13597	9137
0	26955	13597	9127
0	26961	13597	9117
0	26967	13597	9107
0	26973	13597	9097
0	26979	13597	9087
0	26985	13597	9077
0	26991	13597	9067
0	26997	13597	9057
0	27003	13597	9047
0	27009	13597	9037
0	27015	13597	9027
0	27021	13597	9017
0	27027	13597	9007
0	27033	13597	8997
0	27039	13597	8987
0	27045	13597	8977
0	27051	13597	8967
0	27057	13597	8957
0	27063	13597	8947
0	27069	13597	8937
0	27075	13597	8927
0	27081	13597	8917
0	27087	13597	8907
0	27093	13597	8897
0	27099	13597	8887
0	27105	13597	8877
0	27111	13597	8867
0	27117	13597	8857
0	27123	13597	8847
0	27129	13597	8837
0	27135	13597	8827
0	27141	13597	8817
0	27147	13597	8807
0	27153	13597	8797
0	27159	13597	8787
0	27165	13597	8777
0	27171	13597	8767
0	27177	13597	8757
0	27183	13597	8747
0	27189	13597	8737
0	27195	13597	8727
0	27201	13597	8717
0	27207	13597	8707
0	27213	13597	8697
0	27219	13597	8687
0	27225	13597	8677
0	27231	13597	8667
0	27237	13597	8657
0	27243	13597	8647
0	27249	13597	8637
0	27255	13597	8627
0	27261	13597	8617
0	27267	13597	8607
0	27273	13597	8597
0	27279	13597	8587
0	27285	13597	8577
0	27291	13597	8567
0	27297	13597	8557
0	27303	13597	8547
0	27309	13597	8537
0	27315	13597	8527
0	27321	13597	8517
0	27327	13597	8507
0	27333	13597	8497
0	27339	13597	8487
0	27345	13597	8477
0	27351	13597	8467
0	27357	13597	8457
0	27363	13597	8447
0	27369	13597	8437
0	27375	13597	8427
0	27381	13597	8417
0	27387	13597	8407
0	27393	13597	8397
0	27399	13597	8387
0	27405	13597	8377
0	27411	13597	8367
0	27417	13597	8357
0	27423	13597	8347
0	27429	13597	8337
0	27435	13597	8327
0	27441	13597	8317
0	27447	13597	8307
0	27453	13597	8297
0	27459	13597	8287
0	27465	13597	8277
0	27471	13597	8267
0	27477	13597	8257
0	27483	13597	8247
0	27489	13597	8237
0	27495	13597	8227
0	27501	13597	8217
0	27507	13597	8207
0	27513	13597	8197
0	27519	13597	8187
0	27525	13597	8177
0	27531	13597	8167
0	27537	13597	8157
0	27543	13597	8147
0	27549	13597	8137
0	27555	13597	8127
0	27561	13597	8117
0	27567	13597	8107
0	27573	13597	8097
0	27579	13597	8087
0	27585	13597	8077
0	27591	13597	8067
0	27597	13597	8057
0	27603	13597	8047
0	27609	13597	8037
0	27615	13597	8027
0	27621	13597	8017
0	27627	13597	8007
0	27633	13597	7997
0	27639	13597	7987
0	27645	13597	7977
0	27651	13597	7967
0	27657	13597	7957
0	27663	13597	7947
0	27669	13597	7937
0	27675	13597	7927
0	27681	13597	7917
0	27687	13597	7907
0	27693	13597	7897
0	27699	13597	7887
0	27705	13597	7877
0	27711	13597	7867
0	27717	13597	7857
0	27723	13597	7847
0	27729	13597	7837
0	27735	13597	7827
0	27741	13597	7817
0	27747	13597	7807
0	27753	13597	7797
0	27759	13597	7787
0	27765	13597	7777
0	27771	13597	7767
0	27777	13597	7757
0	27783	13597	7747
0	27789	13597	7737
0	27795	13597	7727
0	27801	13597	7717
0	27807	13597	7707
0	27813	13597	7697
0	27819	13597	7687
0	27825	13597	7677
0	27831	13597	7667
0	27837	13597	7657
0	27843	13597	7647
0	27849	13597	7637
0	27855	13597	7627
0	27861	13597	7617
0	27867	13597	7607
0	27873	13597	7597
0	27879	13597	7587
0	27885	13597	7577
0	27891	13597	7567
0	27897	13597	7557
0	27903	13597	7547
0	27909	13597	7537
0	27915	13597	7527
0	27921	13597	7517
0	27927	13597	7507
0	27933	13597	7497
0	27939	13597	7487
0	27945	13597	7477
0	27951	13597	7467
0	27957	13597	7457
0	27963	13597	7447
0	27969	13597	7437
0	27975	13597	7427
0	27981	13597	7417
0	27987	13597	7407
0	27993	13597	7397
0	27999	13597	7387
0	28005	13597	7377
0	28011	13597	7367
0	28017	13597	7357
0	28023	13597	7347
0	28029	13597	7337
0	28035	13597	7327
0	28041	13597	7317
0	28047	13597	7307
0	28053	13597	7297
0	28059	13597	7287
0	28065	13597	7277
0	28071	13597	7267
0	28077	13597	7257
0	28083	13597	7247
0	28089	13597	7237
0	28095	13597	7227
0	28101	13597	7217
0	28107	13597	7207
0	28113	13597	7197
0	28119	13597	7187
0	28125	13597	7177
0	28131	13597	7167
0	28137	13597	7157
0	28143	13597	7147
0	28149	13597	7137
0	28155	13597	7127
0	28161	13597	7117
0	28167	13597	7107
0	28173	13597	7097
0	28179	13597	7087
0	28185	13597	7077
0	28191	13597	7067
0	28197	13597	7057
0	28203	13597	7047
0	28209	13597	7037
0	28215	13597	7027
0	28221	13597	7017
0	28227	13597	7007
0	28233	13597	6997
0	28239	13597	6987
0	28245	13597	6977
0	28251	13597	6967
0	28257	13597	6957
0	28263	13597	6947
0	28269	13597	6937
0	28275	13597	6927
0	28281	13597	6917
0	28287	13597	6907
0	28293	13597	6897
0	28299	13597	6887
0	28305	13597	6877
0	28311	13597	6867
0	28317	13597	6857
0	28323	13597	6847
0	28329	13597	6837
0	28335	13597	6827
0	28341	13597	6817
0	28347	13597	6807
0	28353	13597	6797
0	28359	13597	6787
0	28365	13597	6777
0	28371	13597	6767
0	28377	13597	6757
0	28383	13597	6747
0	28389	13597	6737
0	28395	13597	6727
0	28401	13597	6717
0	28407	13597	6707
0	28413	13597	6697
0	28419	13597	6687
0	28425	13597	6677
0	28431	13597	6667
0	28437	13597	6657
0	28443	13597	6647
0	28449	13597	6637
0	28455	13597	6627
0	28461	13597	6617
0	28467	13597	6607
0	28473	13597	6597
0	28479	13597	6587
0	28485	13597	6577
0	28491	13597	6567
0	28497	13597	6557
0	28503	13597	6547
0	28509	13597	6537
0	28515	13597	6527
0	28521	13597	6517
0	28527	13597	6507
0	28533	13597	6497
0	28539	13597	6487
0	28545	13597	6477
0	28551	13597	6467
0	28557	13597	6457
0	28563	13597	6447
0	28569	13597	6437
0	28575	13597	6427
0	28581	13597	6417
0	28587	13597	6407
0	28593	13597	6397
0	28599	13597	6387
0	28605	13597	6377
0	28611	13597	6367
0	28617	13597	6357
0	28623	13597	6347
0	28629	13597	6337
0	28635	13597	6327
0	28641	13597	6317
0	28647	13597	6307
0	28653	13597	6297
0	28659	13597	6287
0	28665	13597	6277
0	28671	13597	6267
0	28677	13597	6257
0	28683	13597	6247
0	28689	13597	6237
0	28695	13597	6227
0	28701	13597	6217
0	28707	13597	6207
0	28713	13597	6197
0	28719	13597	6187
0	28725	13597	6177
0	28731	13597	6167
0	28737	13597	6157
0	28743	13597	6147
0	28749	13597	6137
0	28755	13597	6127
0	28761	13597	6117
0	28767	13597	6107
0	28773	13597	6097
0	28779	13597	6087
0	28785	13597	6077
0	28791	13597	6067
0	28797	13597	6057
0	28803	13597	6047
0	28809	13597	6037
0	28815	13597	6027
0	28821	13597	6017
0	28827	13597	6007
0	28833	13597	5997
0	28839	13597	5987
0	28845	13597	5977
0	28851	13597	5967
0	28857	13597	5957
0	28863	13597	5947
0	28869	13597	5937
0	28875	13597	5927
0	28881	13597	5917
0	28887	13597	5907
0	28893	13597	5897
0	28899	13597	5887
0	28905	13597	5877
0	28911	13597	5867
0	28917	13597	5857
0	28923	13597	5847
0	28929	13597	5837
0	28935	13597	5827
0	28941	13597	5817
0	28947	13597	5807
0	28953	13597	5797
0	28959	13597	5787
0	28965	13597	5777
0	28971	13597	5767
0	28977	13597	5757
0	28983	13597	5747
0	28989	13597	5737
0	28995	13597	5727
0	29001	13597	5717
0	29007	13597	5707
0	29013	13597	5697
0	29019	13597	5687
0	29025	13597	5677
0	29031	13597	5667
0	29037	13597	5657
0	29043	13597	5647
0	29049	13597	5637
0	29055	13597	5627
0	29061	13597	5617
0	29067	13597	5607
0	29073	13597	5597
0	29079	13597	5587
0	29085	13597	5577
0	29091	13597	5567
0	29097	13597	5557
0	29103	13597	5547
0	29109	13597	5537
0	29115	13597	5527
0	29121	13597	5517
0	29127	13597	5507
0	29133	13597	5497
0	29139	13597	5487
0	29145	13597	5477
0	29151	13597	5467
0	29157	13597	5457
0	29163	13597	5447
0	29169	13597	5437
0	29175	13597	5427
0	29181	13597	5417
0	29187	13597	5407
0	29193	13597	5397
0	29199	13597	5387
0	29205	13597	5377
0	29211	13597	5367
0	29217	13597	5357
0	29223	13597	5347
0	29229	13597	5337
0	29235	13597	5327
0	29241	13597	5317
0	29247	13597	5307
0	29253	13597	5297
0	29259	13597	5287
0	29265	13597	5277
0	29271	13597	5267
0	29277	13597	5257
0	29283	13597	5247
0	29289	13597	5237
0	29295	13597	5227
0	29301	13597	5217
0	29307	13597	5207
0	29313	13597	5197
0	29319	13597	5187
0	29325	13597	5177
0	29331	13597	5167
0	29337	13597	5157
0	29343	13597	5147
0	29349	13597	5137
0	29355	13597	5127
0	29361	13597	5117
0	29367	13597	5107
0	29373	13597	5097
0	29379	13597	5087
0	29385	13597	5077
0	29391	13597	5067
0	29397	13597	5057
0	29403	13597	5047
0	29409	13597	5037
0	29415	13597	5027
0	29421	13597	5017
0	29427	13597	5007
0	29433	13597	4997
0	29439	13597	4987
0	29445	13597	4977
0	29451	13597	4967
0	29457	13597	4957
0	29463	13597	4947
0	29469	13597	4937
0	29475	13597	4927
0	29481	13597	4917
0	29487	13597	4907
0	29493	13597	4897
0	29499	13597	4887
0	29505	13597	4877
0	29511	13597	4867
0	29517	13597	4857
0	29523	13597	4847
0	29529	13597	4837
0	29535	13597	4827
0	29541	13597	4817
0	29547	13597	4807
0	29553	13597	4797
0	29559	13597	4787
0	29565	13597	4777
0	29571	13597	4767
0	29577	13597	4757
0	29583	13597	4747
0	29589	13597	4737
0	29595	13597	4727
0	29601	13597	4717
0	29607	13597	4707
0	29613	13597	4697
0	29619	13597	4687
0	29625	13597	4677
0	29631	13597	4667
0	29637	13597	4657
0	29643	13597	4647
0	29649	13597	4637
0	29655	13597	4627
0	29661	13597	4617
0	29667	13597	4607
0	29673	13597	4597
0	29679	13597	4587
0	29685	13597	4577
0	29691	13597	4567
0	29697	13597	4557
0	29703	13597	4547
0	29709	13597	4537
0	29715	13597	4527
0	29721	13597	4517
0	29727	13597	4507
0	29733	13597	4497
0	29739	13597	4487
0	29745	13597	4477
0	29751	13597	4467
0	29757	13597	4457
0	29763	13597	4447
0	29769	13597	4437
0	29775	13597	4427
0	29781	13597	4417
0	29787	13597	4407
0	29793	13597	4397
0	29799	13597	4387
0	29805	13597	4377
0	29811	13597	4367
0	29817	13597	4357
0	29823	13597	4347
0	29829	13597	4337
0	29835	13597	4327
0	29841	13597	4317
0	29847	13597	4307
0	29853	13597	4297
0	29859	13597	4287
0	29865	13597	4277
0	29871	13597	4267
0	29877	13597	4257
0	29883	13597	4247
0	29889	13597	4237
0	29895	13597	4227
0	29901	13597	4217
0	29907	13597	4207
0	29913	13597	4197
0	29919	13597	4187
0	29925	13597	4177
0	29931	13597	4167
0	29937	13597	4157
0	29943	13597	4147
0	29949	13597	4137
0	29955	13597	4127
0	29961	13597	4117
0	29967	13597	4107
0	29973	13597	4097
0	29979	13597	4087
0	29985	13597	4077
0	29991	13597	4067
0	29997	13597	4057
0	30003	13597	4047
0	30009	13597	4037
0	30015	13597	4027
0	30021	13597	4017
0	30027	13597	4007
0	30033	13597	3997
0	30039	13597	3987
0	30045	13597	3977
0	30051	13597	3967
0	30057	13597	3957
0	30063	13597	3947
0	30069	13597	3937
0	30075	13597	3927
0	30081	13597	3917
0	30087	13597	3907
0	30093	13597	3897
0	30099	13597	3887
0	30105	13597	3877
0	30111	13597	3867
0	30117	13597	3857
0	30123	13597	3847
0	30129	13597	3837
0	30135	13597	3827
0	30141	13597	3817
0	30147	13597	3807
0	30153	13597	3797
0	30159	13597	3787
0	30165	13597	3777
0	30171	13597	3767
0	30177	13597	3757
0	30183	13597	3747
0	30189	13597	3737
0	30195	13597	3727
0	30201	13597	3717
0	30207	13597	3707
0	30213	13597	3697
0	30219	13597	3687
0	30225	13597	3677
0	30231	13597	3667
0	30237	13597	3657
0	30243	13597	3647
0	30249	13597	3637
0	30255	13597	3627
0	30261	13597	3617
0	30267	13597	3607
0	30273	13597	3597
0	30279	13597	3587
0	30285	13597	3577
0	30291	13597	3567
0	30297	13597	3557
0	30303	13597	3547
0	30309	13597	3537
0	30315	13597	3527
0	30321	13597	3517
0	30327	13597	3507
0	30333	13597	3497
0	30339	13597	3487
0	30345	13597	3477
0	30351	13597	3467
0	30357	13597	3457
0	30363	13597	3447
0	30369	13597	3437
0	30375	13597	3427
0	30381	13597	3417
0	30387	13597	3407
0	30393	13597	3397
0	30399	13597	3387
0	30405	13597	3377
0	30411	13597	3367
0	30417	13597	3357
0	30423	13597	3347
0	30429	13597	3337
0	30435	13597	3327
0	30441	13597	3317
0	30447	13597	3307
0	30453	13597	3297
0	30459	13597	3287
0	30465	13597	3277
0	30471	13597	3267
0	30477	13597	3257
0	30483	13597	3247
0	30489	13597	3237
0	30495	13597	3227
0	30501	13597	3217
0	30507	13597	3207
0	30513	13597	3197
0	30519	13597	3187
0	30525	13597	3177
0	30531	13597	3167
0	30537	13597	3157
0	30543	13597	3147
0	30549	13597	3137
0	30555	13597	3127
0	30561	13597	3117
0	30567	13597	3107
0	30573	13597	3097
0	30579	13597	3087
0	30585	13597	3077
0	30591	13597	3067
0	30597	13597	3057
0	30603	13597	3047
0	30609	13597	3037
0	30615	13597	3027
0	30621	13597	3017
0	30627	13597	3007
0	30633	13597	2997
0	30639	13597	2987
0	30645	13597	2977
0	30651	13597	2967
0	30657	13597	2957
0	30663	13597	2947
0	30669	13597	2937
0	30675	13597	2927
0	30681	13597	2917
0	30687	13597	2907
0	30693	13597	2897
0	30699	13597	2887
0	30705	13597	2877
0	30711	13597	2867
0	30717	13597	2857
0	30723	13597	2847
0	30729	13597	2837
0	30735	13597	2827
0	30741	13597	2817
0	30747	13597	2807
0	30753	13597	2797
0	30759	13597	2787
0	30765	13597	2777
0	30771	13597	2767
0	30777	13597	2757
0	30783	13597	2747
0	30789	13597	2737
0	30795	13597	2727
0	30801	13597	2717
0	30807	13597	2707
0	30813	13597	2697
0	30819	13597	2687
0	30825	13597	2677
0	30831	13597	2667
0	30837	13597	2657
0	30843	13597	2647
0	30849	13597	2637
0	30855	13597	2627
0	30861	13597	2617
0	30867	13597	2607
0	30873	13597	2597
0	30879	13597	2587
0	30885	13597	2577
0	30891	13597	2567
0	30897	13597	2557
0	30903	13597	2547
0	30909	13597	2537
0	30915	13597	2527
0	30921	13597	2517
0	30927	13597	2507
0	30933	13597	2497
0	30939	13597	2487
0	30945	13597	2477
0	30951	13597	2467
0	30957	13597	2457
0	30963	13597	2447
0	30969	13597	2437
0	30975	13597	2427
0	30981	13597	2417
0	30987	13597	2407
0	30993	13597	2397
0	30999	13597	2387
0	31005	13597	2377
0	31011	13597	2367
0	31017	13597	2357
0	31023	13597	2347
0	31029	13597	2337
0	31035	13597	2327
0	31041	13597	2317
0	31047	13597	2307
0	31053	13597	2297
0	31059	13597	2287
0	31065	13597	2277
0	31071	13597	2267
0	31077	13597	2257
0	31083	13597	2247
0	31089	13597	2237
0	31095	13597	2227
0	31101	13597	2217
0	31107	13597	2207
0	31113	13597	2197
0	31119	13597	2187
0	31125	13597	2177
0	31131	13597	2167
0	31137	13597	2157
0	31143	13597	2147
0	31149	13597	2137
0	31155	13597	2127
0	31161	13597	2117
0	31167	13597	2107
0	31173	13597	2097
0	31179	13597	2087
0	31185	13597	2077
0	31191	13597	2067
0	31197	13597	2057
0	31203	13597	2047
0	31209	13597	2037
0	31215	13597	2027
0	31221	13597	2017
0	31227	13597	2007
0	31233	13597	1997
0	31239	13597	1987
0	31245	13597	1977
0	31251	13597	1967
0	31257	13597	1957
0	31263	13597	1947
0	31269	13597	1937
0	31275	13597	1927
0	31281	13597	1917
0	31287	13597	1907
0	31293	13597	1897
0	31299	13597	1887
0	31305	13597	1877
0	31311	13597	1867
0	31317	13597	1857
0	31323	13597	1847
0	31329	13597	1837
0	31335	13597	1827
0	31341	13597	1817
0	31347	13597	1807
0	31353	13597	1797
0	31359	13597	1787
0	31365	13597	1777
0	31371	13597	1767
0	31377	13597	1757
0	31383	13597	1747
0	31389	13597	1737
0	31395	13597	1727
0	31401	13597	1717
0	31407	13597	1707
0	31413	13597	1697
0	31419	13597	1687
0	31425	13597	1677
0	31431	13597	1667
0	31437	13597	1657
0	31443	13597	1647
0	31449	13597	1637
0	31455	13597	1627
0	31461	13597	1617
0	31467	13597	1607
0	31473	13597	1597
0	31479	13597	1587
0	31485	13597	1577
0	31491	13597	1567
0	31497	13597	1557
0	31503	13597	1547
0	31509	13597	1537
0	31515	13597	1527
0	31521	13597	1517
0	31527	13597	1507
0	31533	13597	1497
0	31539	13597	1487
0	31545	13597	1477
0	31551	13597	1467
0	31557	13597	1457
0	31563	13597	1447
0	31569	13597	1437
0	31575	13597	1427
0	31581	13597	1417
0	31587	13597	1407
0	31593	13597	1397
0	31599	13597	1387
0	31605	13597	1377
0	31611	13597	1367
0	31617	13597	1357
0	31623	13597	1347
0	31629	13597	1337
0	31635	13597	1327
0	31641	13597	1317
0	31647	13597	1307
0	31653	13597	1297
0	31659	13597	1287
0	31665	13597	1277
0	31671	13597	1267
0	31677	13597	1257
0	31683	13597	1247
0	31689	13597	1237
0	31695	13597	1227
0	31701	13597	1217
0	31707	13597	1207
0	31713	13597	1197
0	31719	13597	1187
0	31725	13597	1177
0	31731	13597	1167
0	31737	13597	1157
0	31743	13597	1147
0	31749	13597	1137
0	31755	13597	1127
0	31761	13597	1117
0	31767	13597	1107
0	31773	13597	1097
0	31779	13597	1087
0	31785	13597	1077
0	31791	13597	1067
0	31797	13597	1057
0	31803	13597	1047
0	31809	13597	1037
0	31815	13597	1027
0	31821	13597	1017
0	31827	13597	1007
0	31833	13597	997
0	31839	13597	987
0	31845	13597	977
0	31851	13597	967
0	31857	13597	957
0	31863	13597	947
0	31869	13597	937
0	31875	13597	927
0	31881	13597	917
0	31887	13597	907
0	31893	13597	897
0	31899	13597	887
0	31905	13597	877
0	31911	13597	867
0	31917	13597	857
0	31923	13597	847
0	31939	13598	838
0	31968	13608	838
0	31997	13618	838
0	32026	13628	838
0	32057	13638	838
0	32087	13648	838
0	32117	13658	838
0	32147	13668	838
0	32177	13678	838
0	32207	13688	838
0	32237	13698	838
0	32267	13708	838
0	32297	13718	838
0	32327	13728	838
0	32359	13738	838
0	32389	13748	838
0	32419	13758	838
0	32449	13768	838
0	32479	13778	838
0	32509	13788	838
0	32539	13798	838
0	32569	13808	838
0	32599	13818	838
0	32629	13828	838
0	34284	14678	1678
0	34296	14678	1668
0	34309	14678	1658
0	34320	14678	1648
0	34333	14678	1638
0	34344	14678	1628
0	34357	14678	1618
0	34368	14678	1608
0	34381	14678	1598
0	34392	14678	1588
0	34405	14678	1578
0	34416	14678	1568
0	34429	14678	1558
0	34440	14678	1548
0	34453	14678	1538
0	34464	14678	1528
0	34477	14678	1518
0	34488	14678	1508
0	34501	14678	1498
0	34512	14678	1488
0	34525	14678	1478
0	34536	14678	1468
0	34549	14678	1458
0	34560	14678	1448
0	34573	14678	1438
0	34584	14678	1428
0	34597	14678	1418
0	34608	14678	1408
0	34621	14678	1398
0	34632	14678	1388
0	34645	14678	1378
0	34656	14678	1368
0	34669	14678	1358
0	34680	14678	1348
0	34693	14678	1338
0	34704	14678	1328
0	34717	14678	1318
0	34728	14678	1308
0	34741	14678	1298
0	34752	14678	1288
0	34765	14678	1278
0	34776	14678	1268
0	34789	14678	1258
0	34800	14678	1248
0	34813	14678	1238
0	34824	14678	1228
0	34837	14678	1218
0	34848	14678	1208
0	34861	14678	1198
0	34872	14678	1188
0	34885	14678	1178
0	34896	14678	1168
0	34909	14678	1158
0	34920	14678	1148
0	34933	14678	1138
0	34944	14678	1128
0	34957	14678	1118
0	34968	14678	1108
0	34981	14678	1098
0	34992	14678	1088
0	35005	14678	1078
0	35016	14678	1068
0	35029	14678	1058
0	35040	14678	1048
0	35053	14678	1038
0	35064	14678	1028
0	35077	14678	1018
0	35088	14678	1008
0	35101	14678	998
0	35112	14678	988
0	35125	14678	978
0	35136	14678	968
0	35149	14678	958
0	35160	14678	948
0	35173	14678	938
0	35184	14678	928
0	35197	14678	918
0	35208	14678	908
0	35221	14678	898
0	35232	14678	888
0	35245	14678	878
0	35256	14678	868
0	35269	14678	858
0	35280	14678	848
0	35289	14678	838
0	35321	14688	838
0	35354	14698	838
0	35387	14708	838
0	35420	14718	838
0	35453	14728	838
0	35486	14738	838
0	35519	14748	838
0	35552	14758	838
0	35585	14768	838
0	35618	14778	838
0	35651	14788	838
0	35684	14798	838
0	35717	14808	838
0	35750	14818	838
0	35783	14828	838
0	35816	14838	838
0	35849	14848	838
0	35882	14858	838
0	35915	14868	838
0	35948	14878	838
0	35981	14888	838
0	36014	14898	838
0	36047	14908	838
0	36080	14918	838
0	36113	14928	838
0	36147	14938	838
0	37945	15778	1668
0	37959	15778	1658
0	37973	15778	1648
0	37984	15778	1638
0	37998	15778	1628
0	38009	15778	1618
0	38023	15778	1608
0	38034	15778	1598
0	38048	15778	1588
0	38059	15778	1578
0	38073	15778	1568
0	38084	15778	1558
0	38098	15778	1548
0	38109	15778	1538
0	38123	15778	1528
0	38134	15778	1518
0	38148	15778	1508
0	38159	15778	1498
0	38173	15778	1488
0	38184	15778	1478
0	38198	15778	1468
0	38209	15778	1458
0	38223	15778	1448
0	38234	15778	1438
0	38248	15778	1428
0	38259	15778	1418
0	38273	15778	1408
0	38284	15778	1398
0	38298	15778	1388
0	38309	15778	1378
0	38323	15778	1368
0	38334	15778	1358
0	38348	15778	1348
0	38359	15778	1338
0	38373	15778	1328
0	38384	15778	1318
0	38398	15778	1308
0	38409	15778	1298
0	38423	15778	1288
0	38434	15778	1278
0	38448	15778	1268
0	38459	15778	1258
0	38473	15778	1248
0	38484	15778	1238
0	38498	15778	1228
0	38509	15778	1218
0	38523	15778	1208
0	38534	15778	1198
0	38548	15778	1188
0	38559	15778	1178
0	38573	15778	1168
0	38584	15778	1158
0	38598	15778	1148
0	38609	15778	1138
0	38623	15778	1128
0	38634	15778	1118
0	38648	15778	1108
0	38659	15778	1098
0	38673	15778	1088
0	38684	15778	1078
0	38698	15778	1068
0	38709	15778	1058
0	38723	15778	1048
0	38734	15778	1038
0	38748	15778	1028
0	38759	15778	1018
0	38773	15778	1008
0	38784	15778	998
0	38798	15778	988
0	38809	15778	978
0	38823	15778	968
0	38834	15778	958
0	38848	15778	948
0	38859	15778	938
0	38873	15778	928
0	38884	15778	918
0	38898	15778	908
0	38909	15778	898
0	38923	15778	888
0	38934	15778	878
0	38948	15778	868
0	38959	15778	858
0	38973	15778	848
0	38980	15778	838
0	39012	15788	838
0	39047	15798	838
0	39082	15808	838
0	39117	15818	838
0	39151	15828	838
0	39186	15838	838
0	39220	15848	838
0	39254	15858	838
0	39288	15868	838
0	39322	15878	838
0	39356	15888	838
0	39390	15898	838
0	39424	15908	838
0	39458	15918	838
0	39492	15928	838
0	39526	15938	838
0	39560	15948	838
0	39594	15958	838
0	39628	15968	838
0	39662	15978	838
0	39696	15988	838
0	39730	15998	838
0	39764	16008	838
0	39798	16018	838
0	39832	16028	838
0	39866	16038	838
0	39902	16048	838
0	39936	16058	838
0	39970	16068	838
0	40004	16078	838
0	40039	16088	838
0	40072	16098	838
0	40107	16108	838
0	40141	16118	838
0	40175	16128	838
0	40209	16138	838
0	40243	16148	838
0	40277	16158	838
0	40311	16168	838
0	40345	16178	838
0	40379	16188	838
0	40413	16198	838
0	40447	16208	838
0	40481	16218	838
0	40515	16228	838
0	40549	16238	838
0	40583	16248	838
0	40617	16258	838
0	40651	16268	838
0	40685	16278	838
0	40719	16288	838
0	40753	16298	838
0	40787	16308	838
0	40821	16318	838
0	40855	16328	838
0	40889	16338	838
0	40923	16348	838
0	40957	16358	838
0	40991	16368	838
0	41025	16378	838
0	41059	16388	838
0	41092	16398	838
0	41125	16408	838
0	41158	16418	838
0	41191	16428	838
0	41224	16438	838
0	41257	16448	838
0	41290	16458	838
0	41323	16468	838
0	41356	16478	838
0	41389	16488	838
0	41422	16498	838
0	41455	16508	838
0	41488	16518	838
0	41521	16528	838
0	41554	16538	838
0	41587	16548	838
0	41620	16558	838
0	43192	17409	1679
0	43201	17409	1669
0	43207	17409	1659
0	43213	17409	1649
0	43219	17409	1639
0	43225	17409	1629
0	43231	17409	1619
0	43237	17409	1609
0	43243	17409	1599
0	43249	17409	1589
0	43255	17409	1579
0	43261	17409	1569
0	43267	17409	1559
0	43273	17409	1549
0	43279	17409	1539
0	43285	17409	1529
0	43291	17409	1519
0	43297	17409	1509
0	43303	17409	1499
0	43309	17409	1489
0	43315	17409	1479
0	43321	17409	1469
0	43327	17409	1459
0	43333	17409	1449
0	43339	17409	1439
0	43345	17409	1429
0	43351	17409	1419
0	43357	17409	1409
0	43363	17409	1399
0	43369	17409	1389
0	43375	17409	1379
0	43381	17409	1369
0	43387	17409	1359
0	43393	17409	1349
0	43399	17409	1339
0	43405	17409	1329
0	43411	17409	1319
0	43417	17409	1309
0	43423	17409	1299
0	43429	17409	1289
0	43435	17409	1279
0	43441	17409	1269
0	43447	17409	1259
0	43453	17409	1249
0	43459	17409	1239
0	43465	17409	1229
0	43471	17409	1219
0	43477	17409	1209
0	43483	17409	1199
0	43489	17409	1189
0	43495	17409	1179
0	43501	17409	1169
0	43507	17409	1159
0	43513	17409	1149
0	43519	17409	1139
0	43525	17409	1129
0	43531	17409	1119
0	43537	17409	1109
0	43543	17409	1099
0	43549	17409	1089
0	43555	17409	1079
0	43561	17409	1069
0	43567	17409	1059
0	43573	17409	1049
0	43579	17409	1039
0	43585	17409	1029
0	43591	17409	1019
0	43597	17409	1009
0	43603	17409	999
0	43609	17409	989
0	43615	17409	979
0	43621	17409	969
0	43627	17409	959
0	43633	17409	949
0	43639	17409	939
0	43645	17409	929
0	43651	17409	919
0	43657	17409	909
0	43663	17409	899
0	43669	17409	889
0	43675	17409	879
0	43681	17409	869
0	43687	17409	859
0	43693	17409	849
0	43699	17409	839
0	43720	17419	839
0	43744	17429	839
0	43769	17439	839
0	43784	17449	839
0	43799	17459	839
0	43814	17469	839
0	43829	17479	839
0	43844	17489	839
0	43859	17499	839
0	43874	17509	839
0	43889	17519	839
0	43904	17529	839
0	43920	17539	839
0	43935	17549	839
0	43950	17559	839
0	43965	17569	839
0	43980	17579	839
0	43995	17589	839
0	44116	17599	839
0	44140	17609	839
0	44164	17619	839
0	44188	17629	839
0	44212	17639	839
0	44236	17649	839
0	44260	17659	839
0	44284	17669	839
0	44308	17679	839
0	44332	17689	839
0	44356	17699	839
0	44380	17709	839
0	44404	17719	839
0	44428	17729	839
0	44452	17739	839
0	44476	17749	839
0	44500	17759	839
0	44524	17769	839
0	44548	17779	839
0	44572	17789	839
0	44596	17799	839
0	44620	17809	839
0	44644	17819	839
0	44668	17829	839
0	44692	17839	839
0	44716	17849	839
0	44740	17859	839
0	44764	17869	839
0	44788	17879	839
0	44812	17889	839
0	44836	17899	839
0	44860	17909	839
0	44885	17919	839
0	44909	17929	839
0	44933	17939	839
0	46643	18789	1679
0	46652	18789	1669
0	46658	18789	1659
0	46664	18789	1649
0	46670	18789	1639
0	46676	18789	1629
0	46682	18789	1619
0	46688	18789	1609
0	46694	18789	1599
0	46700	18789	1589
0	46706	18789	1579
0	46712	18789	1569
0	46718	18789	1559
0	46724	18789	1549
0	46730	18789	1539
0	46736	18789	1529
0	46742	18789	1519
0	46748	18789	1509
0	46754	18789	1499
0	46760	18789	1489
0	46766	18789	1479
0	46772	18789	1469
0	46778	18789	1459
0	46784	18789	1449
0	46790	18789	1439
0	46796	18789	1429
0	46802	18789	1419
0	46808	18789	1409
0	46814	18789	1399
0	46820	18789	1389
0	46826	18789	1379
0	46832	18789	1369
0	46838	18789	1359
0	46844	18789	1349
0	46850	18789	1339
0	46856	18789	1329
0	46862	18789	1319
0	46868	18789	1309
0	46874	18789	1299
0	46880	18789	1289
0	46886	18789	1279
0	46892	18789	1269
0	46898	18789	1259
0	46904	18789	1249
0	46910	18789	1239
0	46916	18789	1229
0	46922	18789	1219
0	46928	18789	1209
0	46934	18789	1199
0	46940	18789	1189
0	46946	18789	1179
0	46952	18789	1169
0	46958	18789	1159
0	46964	18789	1149
0	46970	18789	1139
0	46976	18789	1129
0	46982	18789	1119
0	46988	18789	1109
0	46994	18789	1099
0	47000	18789	1089
0	47006	18789	1079
0	47012	18789	1069
0	47018	18789	1059
0	47024	18789	1049
0	47030	18789	1039
0	47036	18789	1029
0	47042	18789	1019
0	47048	18789	1009
0	47054	18789	999
0	47060	18789	989
0	47066	18789	979
0	47072	18789	969
0	47078	18789	959
0	47084	18789	949
0	47090	18789	939
0	47096	18789	929
0	47102	18789	919
0	47108	18789	909
0	47114	18789	899
0	47120	18789	889
0	47126	18789	879
0	47132	18789	869
0	47138	18789	859
0	47144	18789	849
0	47150	18789	839
0	47175	18799	839
0	47203	18809	839
0	47231	18819	839
0	47259	18829	839
0	47287	18839	839
0	47315	18849	839
0	47343	18859	839
0	47371	18869	839
0	47399	18879	839
0	47427	18889	839
0	47455	18899	839
0	47483	18909	839
0	47511	18919	839
0	47539	18929	839
0	47568	18939	839
0	47595	18949	839
0	47622	18959	839
0	47649	18969	839
0	47676	18979	839
0	47703	18989	839
0	47730	18999	839
0	47757	19009	839
0	47784	19019	839
0	47813	19029	839
0	47840	19039	839
0	47867	19049	839
0	47894	19059	839
0	47921	19069	839
0	47948	19079	839
0	47975	19089	839
0	48002	19099	839
0	48030	19109	839
0	48057	19119	839
0	48084	19129	839
0	48111	19139	839
0	48138	19149	839
0	48165	19159	839
0	48192	19169	839
0	48219	19179	839
0	48246	19189	839
0	48274	19199	839
0	48301	19209	839
0	48327	19219	839
0	48353	19229	839
0	48379	19239	839
0	48405	19249	839
0	48431	19259	839
0	48457	19269	839
0	48483	19279	839
0	48509	19289	839
0	48535	19299	839
0	48561	19309	839
0	48587	19319	839
0	48613	19329	839
0	48639	19339	839
0	48665	19349	839
0	48691	19359	839
0	48717	19369	839
0	48743	19379	839
0	48769	19389	839
0	48795	19399	839
0	48821	19409	839
0	48847	19419	839
0	48873	19429	839
0	48899	19439	839
0	48925	19449	839
0	48951	19459	839
0	48977	19469	839
0	49003	19479	839
0	49029	19489	839
0	49055	19499	839
0	49081	19509	839
0	49107	19519	839
0	49133	19529	839
0	49159	19539	839
0	49185	19549	839
0	49211	19559	839
0	49237	19569	839
0	49263	19579	839
0	49289	19589	839
0	49317	19599	839
0	49343	19609	839
0	49369	19619	839
0	49395	19629	839
0	49421	19639	839
0	49447	19649	839
0	49473	19659	839
0	49499	19669	839
0	49525	19679	839
0	49551	19689	839
0	49577	19699	839
0	49603	19709	839
0	49629	19719	839
0	49655	19729	839
0	49681	19739	839
0	49707	19749	839
0	49733	19759	839
0	49759	19769	839
0	49789	19778	838
0	49817	19788	838
0	49845	19798	838
0	49873	19808	838
0	49901	19818	838
0	49929	19828	838
0	49957	19838	838
0	49985	19848	838
0	50013	19858	838
0	50041	19868	838
0	50069	19878	838
0	50099	19888	838
0	50128	19898	838
0	50157	19908	838
0	50187	19918	838
0	50216	19928	838
0	50245	19938	838
0	50274	19948	838
0	50303	19958	838
0	50332	19968	838
0	50361	19978	838
0	50390	19988	838
0	50419	19998	838
0	50448	20008	838
0	50477	20018	838
0	50506	20028	838
0	50535	20038	838
0	50564	20048	838
0	50594	20058	838
0	50623	20068	838
0	50652	20078	838
0	50681	20088	838
0	50710	20098	838
0	50739	20108	838
0	50769	20118	838
0	50797	20128	838
0	50825	20138	838
0	50853	20148	838
0	50881	20158	838
0	50909	20168	838
0	50937	20178	838
0	50965	20188	838
0	50993	20198	838
0	51021	20208	838
0	51049	20218	838
0	51077	20228	838
0	51105	20238	838
0	51133	20248	838
0	51161	20258	838
0	51189	20268	838
0	51217	20278	838
0	51245	20288	838
0	51273	20298	838
0	51301	20308	838
0	51329	20318	838
0	51357	20328	838
0	51385	20338	838
0	51413	20348	838
0	51441	20358	838
0	51469	20368	838
0	51497	20378	838
0	51525	20388	838
0	51553	20398	838
0	51581	20408	838
0	51609	20418	838
0	51637	20428	838
0	51665	20438	838
0	51693	20448	838
0	51721	20458	838
0	51749	20468	838
0	51779	20478	838
0	51807	20488	838
0	51835	20498	838
0	51863	20508	838
0	51891	20518	838
0	51919	20528	838
0	51947	20538	838
0	51972	20548	838
0	51997	20558	838
0	52022	20568	838
0	52047	20578	838
0	52072	20588	838
0	52097	20598	838
0	52122	20608	838
0	52147	20618	838
0	52172	20628	838
0	52197	20638	838
0	52222	20648	838
0	52247	20658	838
0	52272	20668	838
0	52297	20678	838
0	52322	20688	838
0	52347	20698	838
0	52372	20708	838
0	52397	20718	838
0	52422	20728	838
0	52447	20738	838
0	52472	20748	838
0	52497	20758	838
0	52522	20768	838
0	52547	20778	838
0	52572	20788	838
0	52598	20798	838
0	52622	20808	838
0	52646	20818	838
0	52672	20828	838
0	52697	20838	838
0	52722	20848	838
0	52747	20858	838
0	52772	20868	838
0	52797	20878	838
0	52822	20888	838
0	52849	20898	838
0	52874	20908	838
0	52899	20918	838
0	52925	20928	838
0	52950	20938	838
0	52975	20948	838
0	53000	20958	838
0	53025	20968	838
0	53050	20978	838
0	53075	20988	838
0	53102	20998	838
0	53127	21008	838
0	53152	21018	838
0	53177	21028	838
0	53202	21038	838
0	53227	21048	838
0	53252	21058	838
0	53277	21068	838
0	53302	21078	838
0	53327	21088	838
0	53352	21098	838
0	53377	21108	838
0	53402	21118	838
0	53427	21128	838
0	53452	21138	838
0	53477	21148	838
0	53502	21158	838
0	53528	21168	838
0	53552	21178	838
0	53576	21188	838
0	53600	21198	838
0	53624	21208	838
0	53650	21218	838
0	53675	21228	838
0	53700	21238	838
0	53725	21248	838
0	53750	21258	838
0	53775	21268	838
0	53800	21278	838
0	53825	21288	838
0	53850	21298	838
0	53875	21308	838
0	53900	21318	838
0	53925	21328	838
0	53950	21338	838
0	53975	21348	838
0	54000	21358	838
0	54025	21368	838
0	55993	24165	3625
0	56000	24165	3615
0	56006	24165	3605
0	56012	24165	3595
0	56018	24165	3585
0	56024	24165	3575
0	56030	24165	3565
0	56036	24165	3555
0	56042	24165	3545
0	56048	24165	3535
0	56054	24165	3525
0	56060	24165	3515
0	56066	24165	3505
0	56072	24165	3495
0	56078	24165	3485
0	56084	24165	3475
0	56090	24165	3465
0	56096	24165	3455
0	56102	24165	3445
0	56108	24165	3435
0	56114	24165	3425
0	56120	24165	3415
0	56126	24165	3405
0	56132	24165	3395
0	56138	24165	3385
0	56144	24165	3375
0	56150	24165	3365
0	56156	24165	3355
0	56162	24165	3345
0	56168	24165	3335
0	56174	24165	3325
0	56180	24165	3315
0	56186	24165	3305
0	56192	24165	3295
0	56198	24165	3285
0	56204	24165	3275
0	56210	24165	3265
0	56216	24165	3255
0	56222	24165	3245
0	56228	24165	3235
0	56234	24165	3225
0	56240	24165	3215
0	56246	24165	3205
0	56252	24165	3195
0	56258	24165	3185
0	56264	24165	3175
0	56270	24165	3165
0	56276	24165	3155
0	56282	24165	3145
0	56288	24165	3135
0	56294	24165	3125
0	56300	24165	3115
0	56306	24165	3105
0	56312	24165	3095
0	56318	24165	3085
0	56324	24165	3075
0	56330	24165	3065
0	56336	24165	3055
0	56342	24165	3045
0	56348	24165	3035
0	56354	24165	3025
0	56360	24165	3015
0	56366	24165	3005
0	56372	24165	2995
0	56378	24165	2985
0	56384	24165	2975
0	56390	24165	2965
0	56396	24165	2955
0	56402	24165	2945
0	56408	24165	2935
0	56414	24165	2925
0	56420	24165	2915
0	56426	24165	2905
0	56432	24165	2895
0	56438	24165	2885
0	56444	24165	2875
0	56450	24165	2865
0	56456	24165	2855
0	56462	24165	2845
0	56468	24165	2835
0	56474	24165	2825
0	56480	24165	2815
0	56486	24165	2805
0	56492	24165	2795
0	56498	24165	2785
0	56504	24165	2775
0	56510	24165	2765
0	56516	24165	2755
0	56522	24165	2745
0	56528	24165	2735
0	56534	24165	2725
0	56540	24165	2715
0	56546	24165	2705
0	56552	24165	2695
0	56558	24165	2685
0	56564	24165	2675
0	56570	24165	2665
0	56576	24165	2655
0	56582	24165	2645
0	56588	24165	2635
0	56594	24165	2625
0	61385	25660	4110
0	61404	25660	4100
0	61411	25660	4090
0	61417	25660	4080
0	61423	25660	4070
0	61429	25660	4060
0	61435	25660	4050
0	61441	25660	4040
0	61447	25660	4030
0	61453	25660	4020
0	61459	25660	4010
0	61465	25660	4000
0	61471	25660	3990
0	61477	25660	3980
0	61483	25660	3970
0	61489	25660	3960
0	61495	25660	3950
0	61501	25660	3940
0	61507	25660	3930
0	61513	25660	3920
0	61519	25660	3910
0	63567	26373	4613
0	63575	26373	4603
0	63581	26373	4593
0	63587	26373	4583
0	63593	26373	4573
0	63599	26373	4563
0	63605	26373	4553
0	63611	26373	4543
0	63617	26373	4533
0	63623	26373	4523
0	63629	26373	4513
0	63635	26373	4503
0	63641	26373	4493
0	63647	26373	4483
0	63653	26373	4473
0	63659	26373	4463
0	63665	26373	4453
0	63671	26373	4443
0	63677	26373	4433
0	63683	26373	4423
0	63689	26373	4413
0	63695	26373	4403
0	63701	26373	4393
0	63707	26373	4383
0	63713	26373	4373
0	63719	26373	4363
0	63725	26373	4353
0	63731	26373	4343
0	63737	26373	4333
0	63743	26373	4323
0	63749	26373	4313
0	63755	26373	4303
0	63761	26373	4293
0	63767	26373	4283
0	63773	26373	4273
0	63779	26373	4263
0	63785	26373	4253
0	63791	26373	4243
0	63797	26373	4233
0	63803	26373	4223
0	63809	26373	4213
0	63815	26373	4203
0	63821	26373	4193
0	63827	26373	4183
0	63833	26373	4173
0	63839	26373	4163
0	63845	26373	4153
0	63851	26373	4143
0	63857	26373	4133
0	63863	26373	4123
0	63869	26373	4113
0	63875	26373	4103
0	63881	26373	4093
0	63887	26373	4083
0	63893	26373	4073
0	63899	26373	4063
0	63905	26373	4053
0	63911	26373	4043
0	63917	26373	4033
0	63923	26373	4023
0	63929	26373	4013
0	63935	26373	4003
0	63941	26373	3993
0	63947	26373	3983
0	63953	26373	3973
0	63959	26373	3963
0	63965	26373	3953
0	63971	26373	3943
0	63977	26373	3933
0	63983	26373	3923
0	63989	26373	3913
0	63995	26373	3903
0	64001	26373	3893
0	64007	26373	3883
0	64013	26373	3873
0	64019	26373	3863
0	64025	26373	3853
0	64031	26373	3843
0	64037	26373	3833
0	64043	26373	3823
0	64049	26373	3813
0	64055	26373	3803
0	64061	26373	3793
0	64067	26373	3783
0	64073	26373	3773
0	64079	26373	3763
0	64085	26373	3753
0	64091	26373	3743
0	64097	26373	3733
0	64103	26373	3723
0	64109	26373	3713
0	64115	26373	3703
0	64121	26373	3693
0	64127	26373	3683
0	64133	26373	3673
0	64139	26373	3663
0	64145	26373	3653
0	64151	26373	3643
0	64157	26373	3633
0	64163	26373	3623
0	64169	26373	3613
0	64175	26373	3603
0	64181	26373	3593
0	64187	26373	3583
0	64193	26373	3573
0	64199	26373	3563
0	64205	26373	3553
0	64211	26373	3543
0	64217	26373	3533
0	64223	26373	3523
0	64229	26373	3513
0	64235	26373	3503
0	64241	26373	3493
0	64247	26373	3483
0	64253	26373	3473
0	64259	26373	3463
0	64265	26373	3453
0	64271	26373	3443
0	64277	26373	3433
0	64283	26373	3423
0	64289	26373	3413
0	64295	26373	3403
0	64301	26373	3393
0	64307	26373	3383
0	64313	26373	3373
0	64319	26373	3363
0	64325	26373	3353
0	64331	26373	3343
0	64337	26373	3333
0	64343	26373	3323
0	64349	26373	3313
0	64355	26373	3303
0	64361	26373	3293
0	64367	26373	3283
0	64373	26373	3273
0	64379	26373	3263
0	64385	26373	3253
0	64391	26373	3243
0	64397	26373	3233
0	64403	26373	3223
0	64409	26373	3213
0	64415	26373	3203
0	64421	26373	3193
0	64427	26373	3183
0	64433	26373	3173
0	64439	26373	3163
0	64445	26373	3153
0	64451	26373	3143
0	64457	26373	3133
0	64463	26373	3123
0	64469	26373	3113
0	64475	26373	3103
0	64481	26373	3093
0	64487	26373	3083
0	64493	26373	3073
0	64499	26373	3063
0	64505	26373	3053
0	64511	26373	3043
0	64517	26373	3033
0	64523	26373	3023
0	64529	26373	3013
0	64535	26373	3003
0	64541	26373	2993
0	64547	26373	2983
0	64553	26373	2973
0	64559	26373	2963
0	64565	26373	2953
0	64571	26373	2943
0	64577	26373	2933
0	64583	26373	2923
0	64589	26373	2913
0	64595	26373	2903
0	64601	26373	2893
0	64607	26373	2883
0	64613	26373	2873
0	64619	26373	2863
0	64625	26373	2853
0	64631	26373	2843
0	64637	26373	2833
0	64643	26373	2823
0	64649	26373	2813
0	64655	26373	2803
0	64661	26373	2793
0	64667	26373	2783
0	64673	26373	2773
0	64679	26373	2763
0	64685	26373	2753
0	64691	26373	2743
0	64697	26373	2733
0	64703	26373	2723
0	64709	26373	2713
0	64715	26373	2703
0	64721	26373	2693
0	64727	26373	2683
0	64733	26373	2673
0	64739	26373	2663
0	64745	26373	2653
0	64751	26373	2643
0	64757	26373	2633
0	64763	26373	2623
0	64769	26373	2613
0	64775	26373	2603
0	64781	26373	2593
0	64787	26373	2583
0	64793	26373	2573
0	64799	26373	2563
0	64805	26373	2553
0	64811	26373	2543
0	64817	26373	2533
0	64823	26373	2523
0	64829	26373	2513
0	64835	26373	2503
0	64841	26373	2493
0	64847	26373	2483
0	64853	26373	2473
0	64859	26373	2463
0	64865	26373	2453
0	64871	26373	2443
0	64877	26373	2433
0	64883	26373	2423
0	64889	26373	2413
0	64895	26373	2403
0	64901	26373	2393
0	64907	26373	2383
0	64913	26373	2373
0	64919	26373	2363
0	64925	26373	2353
0	64931	26373	2343
0	64937	26373	2333
0	64943	26373	2323
0	64949	26373	2313
0	64955	26373	2303
0	64961	26373	2293
0	64967	26373	2283
0	64973	26373	2273
0	64979	26373	2263
0	64985	26373	2253
0	64991	26373	2243
0	64997	26373	2233
0	65003	26373	2223
0	65009	26373	2213
0	65015	26373	2203
0	65021	26373	2193
0	65027	26373	2183
0	65033	26373	2173
0	65039	26373	2163
0	65045	26373	2153
0	65051	26373	2143
0	65057	26373	2133
0	65063	26373	2123
0	65069	26373	2113
0	65075	26373	2103
0	65081	26373	2093
0	65087	26373	2083
0	65093	26373	2073
0	65099	26373	2063
0	65105	26373	2053
0	65111	26373	2043
0	65117	26373	2033
0	65123	26373	2023
0	65129	26373	2013
0	65135	26373	2003
0	65141	26373	1993
0	65147	26373	1983
0	65153	26373	1973
0	65159	26373	1963
0	65165	26373	1953
0	65171	26373	1943
0	65177	26373	1933
0	65183	26373	1923
0	65189	26373	1913
0	65195	26373	1903
0	65201	26373	1893
0	65207	26373	1883
0	65213	26373	1873
0	65219	26373	1863
0	65225	26373	1853
0	65231	26373	1843
0	65237	26373	1833
0	65243	26373	1823
0	65249	26373	1813
0	65255	26373	1803
0	65261	26373	1793
0	65267	26373	1783
0	65273	26373	1773
0	65279	26373	1763
0	65285	26373	1753
0	65291	26373	1743
0	65297	26373	1733
0	65303	26373	1723
0	65309	26373	1713
0	65315	26373	1703
0	65321	26373	1693
0	65327	26373	1683
0	65333	26373	1673
0	65339	26373	1663
0	65345	26373	1653
0	65351	26373	1643
0	65357	26373	1633
0	65363	26373	1623
0	65369	26373	1613
0	65375	26373	1603
0	65381	26373	1593
0	65387	26373	1583
0	65393	26373	1573
0	65399	26373	1563
0	65405	26373	1553
0	65411	26373	1543
0	65417	26373	1533
0	65423	26373	1523
0	65429	26373	1513
0	65435	26373	1503
0	65441	26373	1493
0	65447	26373	1483
0	65453	26373	1473
0	65459	26373	1463
0	65465	26373	1453
0	65471	26373	1443
0	65477	26373	1433
0	65483	26373	1423
0	65489	26373	1413
0	65495	26373	1403
0	65501	26373	1393
0	65507	26373	1383
0	65513	26373	1373
0	65519	26373	1363
0	65525	26373	1353
0	65531	26373	1343
0	65537	26373	1333
0	65543	26373	1323
0	65549	26373	1313
0	65555	26373	1303
0	65561	26373	1293
0	65567	26373	1283
0	65573	26373	1273
0	65579	26373	1263
0	65585	26373	1253
0	65591	26373	1243
0	65597	26373	1233
0	65603	26373	1223
0	65609	26373	1213
0	65615	26373	1203
0	65621	26373	1193
0	65627	26373	1183
0	65633	26373	1173
0	65639	26373	1163
0	65645	26373	1153
0	65651	26373	1143
0	65657	26373	1133
0	65663	26373	1123
0	65669	26373	1113
0	65675	26373	1103
0	65681	26373	1093
0	65687	26373	1083
0	65693	26373	1073
0	65699	26373	1063
0	65705	26373	1053
0	65711	26373	1043
0	65717	26373	1033
0	65723	26373	1023
0	65729	26373	1013
0	65735	26373	1003
0	65741	26373	993
0	65747	26373	983
0	65753	26373	973
0	65759	26373	963
0	65765	26373	953
0	65771	26373	943
0	65777	26373	933
0	65783	26373	923
0	65789	26373	913
0	65795	26373	903
0	65801	26373	893
0	65807	26373	883
0	65813	26373	873
0	65819	26373	863
0	65825	26373	853
0	65831	26373	843
0	65837	26373	833
0	65864	26383	833
0	65893	26393	833
0	65924	26403	833
0	65953	26413	833
0	65982	26423	833
0	66011	26433	833
0	66042	26443	833
0	66072	26453	833
0	66102	26463	833
0	66132	26473	833
0	66162	26483	833
0	66192	26493	833
0	66222	26503	833
0	66252	26513	833
0	66282	26523	833
0	66312	26533	833
0	66342	26543	833
0	66372	26553	833
0	66402	26563	833
0	66432	26573	833
0	66462	26583	833
0	66492	26593	833
0	66522	26603	833
0	66552	26613	833
0	66582	26623	833
0	66612	26633	833
0	66642	26643	833
0	66672	26653	833
0	66702	26663	833
0	66732	26673	833
0	66762	26683	833
0	66792	26693	833
0	66823	26703	833
0	66853	26713	833
0	66883	26723	833
0	66913	26733	833
0	66945	26743	833
0	66976	26753	833
0	67009	26763	833
0	67039	26773	833
0	67069	26783	833
0	67101	26793	833
0	67131	26803	833
0	67161	26813	833
0	67191	26823	833
0	67221	26833	833
0	67251	26843	833
0	67281	26853	833
0	67311	26863	833
0	67341	26873	833
0	67371	26883	833
0	67401	26893	833
0	67432	26903	833
0	67462	26913	833
0	67492	26923	833
0	67522	26933	833
0	67552	26943	833
0	67582	26953	833
0	67613	26963	833
0	67642	26973	833
0	67671	26983	833
0	67700	26993	833
0	67729	27003	833
0	67758	27013	833
0	67787	27023	833
0	67816	27033	833
0	67842	27043	833
0	67868	27053	833
0	67894	27063	833
0	67920	27073	833
0	67946	27083	833
0	67972	27093	833
0	67998	27103	833
0	68024	27113	833
0	68050	27123	833
0	68076	27133	833
0	68102	27143	833
0	68128	27153	833
0	68154	27163	833
0	68180	27173	833
0	68206	27183	833
0	68232	27193	833
0	68260	27203	833
0	68287	27213	833
0	68316	27223	833
0	68344	27233	833
0	68372	27243	833
0	68400	27253	833
0	68429	27263	833
0	68457	27273	833
0	68485	27283	833
0	68513	27293	833
0	68541	27303	833
0	68569	27313	833
0	68597	27323	833
0	68625	27333	833
0	68653	27343	833
0	68680	27353	833
0	68707	27363	833
0	68734	27373	833
0	68761	27383	833
0	68788	27393	833
0	68815	27403	833
0	68842	27413	833
0	68869	27423	833
0	68896	27433	833
0	68923	27443	833
0	68950	27453	833
0	68977	27463	833
0	69004	27473	833
0	69031	27483	833
0	69058	27493	833
0	69085	27503	833
0	69112	27513	833
0	69139	27523	833
0	69168	27533	833
0	69195	27543	833
0	69222	27553	833
0	69249	27563	833
0	69276	27573	833
0	69302	27583	833
0	69328	27593	833
0	69354	27603	833
0	69380	27613	833
0	69406	27623	833
0	69432	27633	833
0	69458	27643	833
0	69484	27653	833
0	69510	27663	833
0	69536	27673	833
0	69562	27683	833
0	69588	27693	833
0	69614	27703	833
0	69640	27713	833
0	69666	27723	833
0	69693	27733	833
0	69718	27743	833
0	69745	27753	833
0	69770	27763	833
0	69795	27773	833
0	69820	27783	833
0	69845	27793	833
0	69870	27803	833
0	69895	27813	833
0	69920	27823	833
0	69945	27833	833
0	69970	27843	833
0	69995	27853	833
0	70020	27863	833
0	76435	31873	4833
0	76444	31873	4823
0	76450	31873	4813
0	76456	31873	4803
0	76462	31873	4793
0	76468	31873	4783
0	76474	31873	4773
0	76480	31873	4763
0	76486	31873	4753
0	76492	31873	4743
0	76498	31873	4733
0	76504	31873	4723
0	76510	31873	4713
0	76516	31873	4703
0	76522	31873	4693
0	76528	31873	4683
0	76534	31873	4673
0	76540	31873	4663
0	76546	31873	4653
0	76552	31873	4643
0	76558	31873	4633
0	76564	31873	4623
0	76570	31873	4613
0	76576	31873	4603
0	76582	31873	4593
0	76588	31873	4583
0	76594	31873	4573
0	76600	31873	4563
0	76606	31873	4553
0	76612	31873	4543
0	76618	31873	4533
0	76624	31873	4523
0	76630	31873	4513
0	76636	31873	4503
0	76642	31873	4493
0	76648	31873	4483
0	76654	31873	4473
0	76660	31873	4463
0	76666	31873	4453
0	76672	31873	4443
0	76678	31873	4433
0	76684	31873	4423
0	76690	31873	4413
0	76696	31873	4403
0	76702	31873	4393
0	76708	31873	4383
0	76714	31873	4373
0	76720	31873	4363
0	76726	31873	4353
0	76732	31873	4343
0	76738	31873	4333
0	76744	31873	4323
0	76750	31873	4313
0	76756	31873	4303
0	76762	31873	4293
0	76768	31873	4283
0	76774	31873	4273
0	76780	31873	4263
0	76786	31873	4253
0	76792	31873	4243
0	76798	31873	4233
0	76804	31873	4223
0	76810	31873	4213
0	76816	31873	4203
0	76822	31873	4193
0	76828	31873	4183
0	76834	31873	4173
0	76840	31873	4163
0	76846	31873	4153
0	76852	31873	4143
0	76858	31873	4133
0	76864	31873	4123
0	76870	31873	4113
0	76876	31873	4103
0	76882	31873	4093
0	76888	31873	4083
0	76894	31873	4073
0	76900	31873	4063
0	76906	31873	4053
0	76912	31873	4043
0	76918	31873	4033
0	76924	31873	4023
0	76930	31873	4013
0	76936	31873	4003
0	76942	31873	3993
0	76948	31873	3983
0	76954	31873	3973
0	76960	31873	3963
0	76966	31873	3953
0	76972	31873	3943
0	76978	31873	3933
0	76984	31873	3923
0	76990	31873	3913
0	76996	31873	3903
0	77002	31873	3893
0	77008	31873	3883
0	77014	31873	3873
0	77020	31873	3863
0	77026	31873	3853
0	77032	31873	3843
0	77038	31873	3833
0	77044	31873	3823
0	77050	31873	3813
0	77056	31873	3803
0	77062	31873	3793
0	77068	31873	3783
0	77074	31873	3773
0	77080	31873	3763
0	77086	31873	3753
0	77092	31873	3743
0	77098	31873	3733
0	77104	31873	3723
0	77110	31873	3713
0	77116	31873	3703
0	77122	31873	3693
0	77128	31873	3683
0	77134	31873	3673
0	77140	31873	3663
0	77146	31873	3653
0	77152	31873	3643
0	77158	31873	3633
0	77164	31873	3623
0	77170	31873	3613
0	77176	31873	3603
0	77182	31873	3593
0	77188	31873	3583
0	77194	31873	3573
0	77200	31873	3563
0	77206	31873	3553
0	77212	31873	3543
0	77218	31873	3533
0	77224	31873	3523
0	77230	31873	3513
0	77236	31873	3503
0	77242	31873	3493
0	77248	31873	3483
0	77254	31873	3473
0	77260	31873	3463
0	77266	31873	3453
0	77272	31873	3443
0	77278	31873	3433
0	77284	31873	3423
0	77290	31873	3413
0	77296	31873	3403
0	77302	31873	3393
0	77308	31873	3383
0	77314	31873	3373
0	77320	31873	3363
0	77326	31873	3353
0	77332	31873	3343
0	77338	31873	3333
0	77344	31873	3323
0	77350	31873	3313
0	77356	31873	3303
0	77362	31873	3293
0	77368	31873	3283
0	77374	31873	3273
0	77380	31873	3263
0	77386	31873	3253
0	77392	31873	3243
0	77398	31873	3233
0	77404	31873	3223
0	77410	31873	3213
0	77416	31873	3203
0	77422	31873	3193
0	77428	31873	3183
0	77434	31873	3173
0	77440	31873	3163
0	77446	31873	3153
0	77452	31873	3143
0	77458	31873	3133
0	77464	31873	3123
0	77470	31873	3113
0	77476	31873	3103
0	77482	31873	3093
0	77488	31873	3083
0	77494	31873	3073
0	77500	31873	3063
0	77506	31873	3053
0	77512	31873	3043
0	77518	31873	3033
0	77524	31873	3023
0	77530	31873	3013
0	77536	31873	3003
0	77542	31873	2993
0	77548	31873	2983
0	77554	31873	2973
0	77560	31873	2963
0	77566	31873	2953
0	77572	31873	2943
0	77578	31873	2933
0	77584	31873	2923
0	77590	31873	2913
0	77596	31873	2903
0	77602	31873	2893
0	77608	31873	2883
0	77614	31873	2873
0	77620	31873	2863
0	77626	31873	2853
0	77632	31873	2843
0	77638	31873	2833
0	77644	31873	2823
0	77650	31873	2813
0	77656	31873	2803
0	77662	31873	2793
0	77668	31873	2783
0	77674	31873	2773
0	77680	31873	2763
0	77686	31873	2753
0	77692	31873	2743
0	77698	31873	2733
0	77704	31873	2723
0	77710	31873	2713
0	77716	31873	2703
0	77722	31873	2693
0	77728	31873	2683
0	77734	31873	2673
0	77740	31873	2663
0	77746	31873	2653
0	77752	31873	2643
0	77758	31873	2633
0	77764	31873	2623
0	77770	31873	2613
0	77776	31873	2603
0	77782	31873	2593
0	77788	31873	2583
0	77794	31873	2573
0	77800	31873	2563
0	77806	31873	2553
0	77812	31873	2543
0	77818	31873	2533
0	77824	31873	2523
0	77830	31873	2513
0	77836	31873	2503
0	77842	31873	2493
0	77848	31873	2483
0	77854	31873	2473
0	77860	31873	2463
0	77866	31873	2453
0	77872	31873	2443
0	77878	31873	2433
0	77884	31873	2423
0	77890	31873	2413
0	77896	31873	2403
0	77902	31873	2393
0	77908	31873	2383
0	77914	31873	2373
0	77920	31873	2363
0	77926	31873	2353
0	77932	31873	2343
0	77938	31873	2333
0	77944	31873	2323
0	77950	31873	2313
0	77956	31873	2303
0	77962	31873	2293
0	77968	31873	2283
0	77974	31873	2273
0	77980	31873	2263
0	77986	31873	2253
0	77992	31873	2243
0	77998	31873	2233
0	78004	31873	2223
0	78010	31873	2213
0	78016	31873	2203
0	78022	31873	2193
0	78028	31873	2183
0	78034	31873	2173
0	79328	32436	2726
0	79337	32436	2716
0	79343	32436	2706
0	79349	32436	2696
0	79355	32436	2686
0	79361	32436	2676
0	79367	32436	2666
0	79373	32436	2656
0	79379	32436	2646
0	79385	32436	2636
0	79391	32436	2626
0	79397	32436	2616
0	79403	32436	2606
0	79409	32436	2596
0	79415	32436	2586
0	79421	32436	2576
0	79427	32436	2566
0	79433	32436	2556
0	79439	32436	2546
0	79445	32436	2536
0	79451	32436	2526
0	79457	32436	2516
0	79463	32436	2506
0	79469	32436	2496
0	79475	32436	2486
0	79481	32436	2476
0	79487	32436	2466
0	79493	32436	2456
0	79499	32436	2446
0	79505	32436	2436
0	79511	32436	2426
0	79517	32436	2416
0	79523	32436	2406
0	79529	32436	2396
0	79535	32436	2386
0	79541	32436	2376
0	79547	32436	2366
0	79553	32436	2356
0	79559	32436	2346
0	79565	32436	2336
0	79571	32436	2326
0	79577	32436	2316
0	79583	32436	2306
0	79589	32436	2296
0	79595	32436	2286
0	79601	32436	2276
0	79607	32436	2266
0	79613	32436	2256
0	79619	32436	2246
0	79625	32436	2236
0	79631	32436	2226
0	79637	32436	2216
0	79643	32436	2206
0	79649	32436	2196
0	79655	32436	2186
0	79661	32436	2176
0	79667	32436	2166
0	79673	32436	2156
0	79679	32436	2146
0	79685	32436	2136
0	79691	32436	2126
0	79697	32436	2116
0	79703	32436	2106
0	79709	32436	2096
0	79715	32436	2086
0	79721	32436	2076
0	79727	32436	2066
0	79733	32436	2056
0	79739	32436	2046
0	79745	32436	2036
0	79751	32436	2026
0	79757	32436	2016
0	79763	32436	2006
0	79769	32436	1996
0	79775	32436	1986
0	79781	32436	1976
0	79787	32436	1966
0	79793	32436	1956
0	79799	32436	1946
0	79805	32436	1936
0	79811	32436	1926
0	79817	32436	1916
0	79823	32436	1906
0	79829	32436	1896
0	79835	32436	1886
0	79841	32436	1876
0	79847	32436	1866
0	79853	32436	1856
0	79859	32436	1846
0	79865	32436	1836
0	79871	32436	1826
0	79877	32436	1816
0	79883	32436	1806
0	79889	32436	1796
0	79895	32436	1786
0	79901	32436	1776
0	79907	32436	1766
0	79913	32436	1756
0	79919	32436	1746
0	79925	32436	1736
0	79931	32436	1726
0	79937	32436	1716
0	79943	32436	1706
0	79949	32436	1696
0	79955	32436	1686
0	79961	32436	1676
0	79967	32436	1666
0	79973	32436	1656
0	79979	32436	1646
0	79985	32436	1636
0	79991	32436	1626
0	79997	32436	1616
0	80003	32436	1606
0	80009	32436	1596
0	80015	32436	1586
0	80021	32436	1576
0	80027	32436	1566
0	80033	32436	1556
0	80039	32436	1546
0	80045	32436	1536
0	80051	32436	1526
0	80057	32436	1516
0	80063	32436	1506
0	80069	32436	1496
0	80075	32436	1486
0	80081	32436	1476
0	80087	32436	1466
0	80093	32436	1456
0	80099	32436	1446
0	80105	32436	1436
0	80111	32436	1426
0	80117	32436	1416
0	80123	32436	1406
0	80129	32436	1396
0	80135	32436	1386
0	80141	32436	1376
0	80147	32436	1366
0	80153	32436	1356
0	80159	32436	1346
0	80165	32436	1336
0	80171	32436	1326
0	80177	32436	1316
0	80183	32436	1306
0	80189	32436	1296
0	80195	32436	1286
0	80201	32436	1276
0	80207	32436	1266
0	80213	32436	1256
0	80219	32436	1246
0	80225	32436	1236
0	80231	32436	1226
0	80237	32436	1216
0	80243	32436	1206
0	80249	32436	1196
0	80255	32436	1186
0	80261	32436	1176
0	80267	32436	1166
0	80273	32436	1156
0	80279	32436	1146
0	80285	32436	1136
0	80291	32436	1126
0	80297	32436	1116
0	80303	32436	1106
0	80309	32436	1096
0	80315	32436	1086
0	80321	32436	1076
0	80327	32436	1066
0	80333	32436	1056
0	80339	32436	1046
0	80345	32436	1036
0	80351	32436	1026
0	80357	32436	1016
0	80363	32436	1006
0	80369	32436	996
0	80375	32436	986
0	80381	32436	976
0	80387	32436	966
0	80393	32436	956
0	80399	32436	946
0	80405	32436	936
0	80411	32436	926
0	80417	32436	916
0	80423	32436	906
0	80429	32436	896
0	80435	32436	886
0	80441	32436	876
0	80447	32436	866
0	80453	32436	856
0	80459	32436	846
0	80465	32436	836
0	80484	32443	833
0	80506	32453	833
0	80528	32463	833
0	80550	32473	833
0	80572	32483	833
0	80594	32493	833
0	80616	32503	833
0	80638	32513	833
0	80660	32523	833
0	80682	32533	833
0	80704	32543	833
0	80726	32553	833
0	80748	32563	833
0	80770	32573	833
0	80792	32583	833
0	80814	32593	833
0	80836	32603	833
0	80858	32613	833
0	80880	32623	833
0	80902	32633	833
0	80924	32643	833
0	80946	32653	833
0	80968	32663	833
0	80990	32673	833
0	81012	32683	833
0	81034	32693	833
0	81056	32703	833
0	81078	32713	833
0	81100	32723	833
0	81122	32733	833
0	81145	32743	833
0	81167	32753	833
0	81189	32763	833
0	81212	32773	833
0	81234	32783	833
0	81256	32793	833
0	81278	32803	833
0	81300	32813	833
0	81322	32823	833
0	81344	32833	833
0	81366	32843	833
0	81387	32853	833
0	81408	32863	833
0	81431	32873	833
0	81452	32883	833
0	81473	32893	833
0	81494	32903	833
0	81515	32913	833
0	81536	32923	833
0	81557	32933	833
0	81578	32943	833
0	81599	32953	833
0	81620	32963	833
0	81641	32973	833
0	81662	32983	833
0	81683	32993	833
0	81704	33003	833
0	81725	33013	833
0	81746	33023	833
0	81767	33033	833
0	81790	33043	833
0	81812	33053	833
0	81834	33063	833
0	81856	33073	833
0	81878	33083	833
0	81900	33093	833
0	81922	33103	833
0	81944	33113	833
0	81966	33123	833
0	81988	33133	833
0	85580	34453	2143
0	85592	34453	2133
0	85598	34453	2123
0	85604	34453	2113
0	85610	34453	2103
0	85616	34453	2093
0	85622	34453	2083
0	85628	34453	2073
0	85634	34453	2063
0	85640	34453	2053
0	85646	34453	2043
0	85652	34453	2033
0	85658	34453	2023
0	85664	34453	2013
0	85670	34453	2003
0	85676	34453	1993
0	85682	34453	1983
0	85688	34453	1973
0	85694	34453	1963
0	85700	34453	1953
0	85706	34453	1943
0	85712	34453	1933
0	85718	34453	1923
0	85724	34453	1913
0	85730	34453	1903
0	85736	34453	1893
0	85742	34453	1883
0	85748	34453	1873
0	85754	34453	1863
0	85760	34453	1853
0	85766	34453	1843
0	85772	34453	1833
0	85778	34453	1823
0	85784	34453	1813
0	85790	34453	1803
0	85796	34453	1793
0	85802	34453	1783
0	85808	34453	1773
0	85814	34453	1763
0	85820	34453	1753
0	85826	34453	1743
0	85832	34453	1733
0	85838	34453	1723
0	85844	34453	1713
0	85850	34453	1703
0	85856	34453	1693
0	85862	34453	1683
0	85868	34453	1673
0	85874	34453	1663
0	85880	34453	1653
0	85886	34453	1643
0	85892	34453	1633
0	85898	34453	1623
0	85904	34453	1613
0	85910	34453	1603
0	85916	34453	1593
0	85922	34453	1583
0	85928	34453	1573
0	85934	34453	1563
0	85940	34453	1553
0	85946	34453	1543
0	85952	34453	1533
0	85958	34453	1523
0	85964	34453	1513
0	85970	34453	1503
0	85976	34453	1493
0	85982	34453	1483
0	85988	34453	1473
0	85994	34453	1463
0	86000	34453	1453
0	86006	34453	1443
0	86012	34453	1433
0	86018	34453	1423
0	86024	34453	1413
0	86030	34453	1403
0	86036	34453	1393
0	86042	34453	1383
0	86048	34453	1373
0	86054	34453	1363
0	86060	34453	1353
0	86066	34453	1343
0	86072	34453	1333
0	86078	34453	1323
0	86084	34453	1313
0	86090	34453	1303
0	86096	34453	1293
0	86102	34453	1283
0	86108	34453	1273
0	86114	34453	1263
0	86120	34453	1253
0	86126	34453	1243
0	86132	34453	1233
0	86138	34453	1223
0	86144	34453	1213
0	86150	34453	1203
0	86156	34453	1193
0	86162	34453	1183
0	86168	34453	1173
0	86174	34453	1163
0	86180	34453	1153
0	86186	34453	1143
0	86192	34453	1133
0	86198	34453	1123
0	86204	34453	1113
0	86210	34453	1103
0	86216	34453	1093
0	86222	34453	1083
0	86228	34453	1073
0	86234	34453	1063
0	86240	34453	1053
0	86246	34453	1043
0	86252	34453	1033
0	86258	34453	1023
0	86264	34453	1013
0	86270	34453	1003
0	86276	34453	993
0	86282	34453	983
0	86288	34453	973
0	86294	34453	963
0	86300	34453	953
0	86306	34453	943
0	86312	34453	933
0	86318	34453	923
0	86324	34453	913
0	86330	34453	903
0	86336	34453	893
0	86342	34453	883
0	86348	34453	873
0	86354	34453	863
0	86360	34453	853
0	86366	34453	843
0	86372	34453	833
0	86401	34463	833
0	86436	34473	833
0	86471	34483	833
0	86506	34493	833
0	86541	34503	833
0	86576	34513	833
0	86611	34523	833
0	86646	34533	833
0	86681	34543	833
0	86716	34553	833
0	86751	34563	833
0	86786	34573	833
0	86821	34583	833
0	86856	34593	833
0	86891	34603	833
0	86926	34613	833
0	86961	34623	833
0	86996	34633	833
0	87025	34643	833
0	87053	34653	833
0	87081	34663	833
0	87109	34673	833
0	87137	34683	833
0	87165	34693	833
0	87193	34703	833
0	87221	34713	833
0	87249	34723	833
0	87278	34733	833
0	87305	34743	833
0	89048	35583	1663
0	89061	35583	1653
0	89074	35583	1643
0	89085	35583	1633
0	89098	35583	1623
0	89109	35583	1613
0	89122	35583	1603
0	89133	35583	1593
0	89146	35583	1583
0	89157	35583	1573
0	89170	35583	1563
0	89181	35583	1553
0	89194	35583	1543
0	89205	35583	1533
0	89218	35583	1523
0	89229	35583	1513
0	89242	35583	1503
0	89253	35583	1493
0	89266	35583	1483
0	89277	35583	1473
0	89290	35583	1463
0	89301	35583	1453
0	89314	35583	1443
0	89325	35583	1433
0	89338	35583	1423
0	89349	35583	1413
0	89362	35583	1403
0	89373	35583	1393
0	89386	35583	1383
0	89397	35583	1373
0	89410	35583	1363
0	89421	35583	1353
0	89434	35583	1343
0	89445	35583	1333
0	89458	35583	1323
0	89469	35583	1313
0	89482	35583	1303
0	89493	35583	1293
0	89506	35583	1283
0	89517	35583	1273
0	89530	35583	1263
0	89541	35583	1253
0	89554	35583	1243
0	89565	35583	1233
0	89578	35583	1223
0	89589	35583	1213
0	89602	35583	1203
0	89613	35583	1193
0	89626	35583	1183
0	89637	35583	1173
0	89650	35583	1163
0	89661	35583	1153
0	89674	35583	1143
0	89685	35583	1133
0	89698	35583	1123
0	89709	35583	1113
0	89722	35583	1103
0	89733	35583	1093
0	89746	35583	1083
0	89757	35583	1073
0	89770	35583	1063
0	89781	35583	1053
0	89794	35583	1043
0	89805	35583	1033
0	89818	35583	1023
0	89829	35583	1013
0	89842	35583	1003
0	89853	35583	993
0	89866	35583	983
0	89877	35583	973
0	89890	35583	963
0	89901	35583	953
0	89914	35583	943
0	89925	35583	933
0	89938	35583	923
0	89949	35583	913
0	89962	35583	903
0	89973	35583	893
0	89986	35583	883
0	89997	35583	873
0	90010	35583	863
0	90021	35583	853
0	90034	35583	843
0	90041	35583	833
0	90076	35593	833
0	90113	35603	833
0	91509	36200	1420
0	91522	36200	1410
0	91534	36200	1400
0	91540	36200	1390
0	91546	36200	1380
0	91552	36200	1370
0	91558	36200	1360
0	91564	36200	1350
0	91570	36200	1340
0	91576	36200	1330
0	91582	36200	1320
0	91588	36200	1310
0	91594	36200	1300
0	91600	36200	1290
0	91606	36200	1280
0	91612	36200	1270
0	91618	36200	1260
0	91624	36200	1250
0	91630	36200	1240
0	91636	36200	1230
0	91642	36200	1220
0	91648	36200	1210
0	91654	36200	1200
0	91660	36200	1190
0	91666	36200	1180
0	91672	36200	1170
0	91678	36200	1160
0	91684	36200	1150
0	91690	36200	1140
0	91696	36200	1130
0	91702	36200	1120
0	91708	36200	1110
0	91714	36200	1100
0	91720	36200	1090
0	91726	36200	1080
0	91732	36200	1070
0	91738	36200	1060
0	91744	36200	1050
0	91750	36200	1040
0	91756	36200	1030
0	91762	36200	1020
0	91768	36200	1010
0	91774	36200	1000
0	91780	36200	990
0	91786	36200	980
0	91792	36200	970
0	91798	36200	960
0	91804	36200	950
0	91810	36200	940
0	91816	36200	930
0	91822	36200	920
0	91828	36200	910
0	91834	36200	900
0	91840	36200	890
0	91846	36200	880
0	91852	36200	870
0	91858	36200	860
0	91864	36200	850
0	91870	36200	840
0	91882	36203	833
0	91909	36213	833
0	91936	36223	833
0	91963	36233	833
0	91990	36243	833
0	92017	36253	833
0	92044	36263	833
0	92071	36273	833
0	92098	36283	833
0	92125	36293	833
0	92152	36303	833
0	92179	36313	833
0	92208	36323	833
0	92235	36333	833
0	92262	36343	833
0	92289	36353	833
0	92316	36363	833
0	92343	36373	833
0	92370	36383	833
0	92397	36393	833
0	92424	36403	833
0	92451	36413	833
0	92478	36423	833
0	92505	36433	833
0	92532	36443	833
0	92559	36453	833
0	92586	36463	833
0	92615	36473	833
0	92647	36483	833
0	92678	36493	833
0	92707	36503	833
0	92736	36513	833
0	92765	36523	833
0	92794	36533	833
0	92823	36543	833
0	92852	36553	833
0	92881	36563	833
0	92910	36573	833
0	92939	36583	833
0	92968	36593	833
0	92999	36603	833
0	93028	36613	833
0	93057	36623	833
0	93086	36633	833
0	93117	36643	833
0	93147	36653	833
0	93177	36663	833
0	93207	36673	833
0	93237	36683	833
0	93267	36693	833
0	93297	36703	833
0	93327	36713	833
0	93356	36723	833
0	93385	36733	833
0	93414	36743	833
0	93442	36753	833
0	93470	36763	833
0	93498	36773	833
0	93526	36783	833
0	93554	36793	833
0	93582	36803	833
0	93610	36813	833
0	93638	36823	833
0	93666	36833	833
0	93694	36843	833
0	93722	36853	833
0	93750	36863	833
0	93780	36873	833
0	93809	36883	833
0	93837	36893	833
0	93865	36903	833
0	93893	36913	833
0	93921	36923	833
0	93949	36933	833
0	93977	36943	833
0	94005	36953	833
0	94033	36963	833
0	94061	36973	833
0	94089	36983	833
0	94117	36993	833
0	94145	37003	833
0	96224	37853	1673
0	96233	37853	1663
0	96239	37853	1653
0	96245	37853	1643
0	96251	37853	1633
0	96257	37853	1623
0	96263	37853	1613
0	96269	37853	1603
0	96275	37853	1593
0	96281	37853	1583
0	96287	37853	1573
0	96293	37853	1563
0	96299	37853	1553
0	96305	37853	1543
0	96311	37853	1533
0	96317	37853	1523
0	96323	37853	1513
0	96329	37853	1503
0	96335	37853	1493
0	96341	37853	1483
0	96347	37853	1473
0	96353	37853	1463
0	96359	37853	1453
0	96365	37853	1443
0	96371	37853	1433
0	96377	37853	1423
0	96383	37853	1413
0	96389	37853	1403
0	96395	37853	1393
0	96401	37853	1383
0	96407	37853	1373
0	96413	37853	1363
0	96419	37853	1353
0	96425	37853	1343
0	96431	37853	1333
0	96437	37853	1323
0	96443	37853	1313
0	96449	37853	1303
0	96455	37853	1293
0	96461	37853	1283
0	96467	37853	1273
0	96473	37853	1263
0	96479	37853	1253
0	96485	37853	1243
0	96491	37853	1233
0	96497	37853	1223
0	96503	37853	1213
0	96509	37853	1203
0	96515	37853	1193
0	96521	37853	1183
0	96527	37853	1173
0	96533	37853	1163
0	96539	37853	1153
0	96545	37853	1143
0	96551	37853	1133
0	96557	37853	1123
0	96563	37853	1113
0	96569	37853	1103
0	96575	37853	1093
0	96581	37853	1083
0	96587	37853	1073
0	96593	37853	1063
0	96599	37853	1053
0	96605	37853	1043
0	96611	37853	1033
0	96617	37853	1023
0	96623	37853	1013
0	96629	37853	1003
0	96635	37853	993
0	96641	37853	983
0	96647	37853	973
0	96653	37853	963
0	96659	37853	953
0	96665	37853	943
0	96671	37853	933
0	96677	37853	923
0	96683	37853	913
0	96689	37853	903
0	96695	37853	893
0	96701	37853	883
0	96707	37853	873
0	96713	37853	863
0	96719	37853	853
0	96725	37853	843
0	96731	37853	833
0	96761	37863	833
0	96793	37873	833
0	96825	37883	833
0	96857	37893	833
0	96889	37903	833
0	96921	37913	833
0	96953	37923	833
0	96985	37933	833
0	97017	37943	833
0	97049	37953	833
0	97081	37963	833
0	97113	37973	833
0	97145	37983	833
0	97177	37993	833
0	97209	38003	833
0	97241	38013	833
0	97273	38023	833
0	97305	38033	833
0	97337	38043	833
0	97369	38053	833
0	97401	38063	833
0	97433	38073	833
0	97467	38083	833
0	97499	38093	833
0	97532	38103	833
0	97562	38113	833
0	97592	38123	833
0	97622	38133	833
0	97652	38143	833
0	97682	38153	833
0	97713	38163	833
0	97743	38173	833
0	97773	38183	833
0	97803	38193	833
0	97833	38203	833
0	97863	38213	833
0	97893	38223	833
0	97925	38233	833
0	97955	38243	833
0	97985	38253	833
0	98015	38263	833
0	98045	38273	833
0	98075	38283	833
0	98105	38293	833
0	98135	38303	833
0	98165	38313	833
0	98195	38323	833
0	98225	38333	833
0	98255	38343	833
0	98285	38353	833
0	98315	38363	833
0	98345	38373	833
0	98375	38383	833
0	98405	38393	833
0	98435	38403	833
0	98465	38413	833
0	98495	38423	833
0	98525	38433	833
0	98555	38443	833
0	98584	38453	833
0	98613	38463	833
0	98642	38473	833
0	98671	38483	833
0	98700	38493	833
0	98729	38503	833
0	98758	38513	833
0	98787	38523	833
0	98816	38533	833
0	98845	38543	833
0	98874	38553	833
0	98903	38563	833
0	98932	38573	833
0	98961	38583	833
0	98990	38593	833
0	99019	38603	833
0	99048	38613	833
0	99077	38623	833
0	99106	38633	833
0	99135	38643	833
0	99164	38653	833
0	99193	38663	833
0	99222	38673	833
0	99253	38683	833
0	99282	38693	833
0	99311	38703	833
0	99340	38713	833
0	99369	38723	833
0	99398	38733	833
0	99427	38743	833
0	99456	38753	833
0	99485	38763	833
0	99514	38773	833
0	99543	38783	833
0	99572	38793	833
0	99601	38803	833
0	99630	38813	833
0	99660	38823	833
0	99689	38833	833
0	99718	38843	833
0	99747	38853	833
0	99776	38863	833
0	99805	38873	833
0	99834	38883	833
0	99863	38893	833
0	99892	38903	833
0	99921	38913	833
0	99950	38923	833
0	99979	38933	833
0	102297	40293	2183
0	102303	40293	2173
0	102309	40293	2163
0	102315	40293	2153
0	102321	40293	2143
0	102327	40293	2133
0	102333	40293	2123
0	102339	40293	2113
0	102345	40293	2103
0	102351	40293	2093
0	102357	40293	2083
0	102363	40293	2073
0	102369	40293	2063
0	102375	40293	2053
0	102381	40293	2043
0	102387	40293	2033
0	102393	40293	2023
0	102399	40293	2013
0	102405	40293	2003
0	102411	40293	1993
0	102417	40293	1983
0	102423	40293	1973
0	102429	40293	1963
0	102435	40293	1953
0	102441	40293	1943
0	102447	40293	1933
0	102453	40293	1923
0	102459	40293	1913
0	102465	40293	1903
0	102471	40293	1893
0	102477	40293	1883
0	102483	40293	1873
0	102489	40293	1863
0	102495	40293	1853
0	102501	40293	1843
0	102507	40293	1833
0	102513	40293	1823
0	102519	40293	1813
0	102525	40293	1803
0	102531	40293	1793
0	102537	40293	1783
0	102543	40293	1773
0	102549	40293	1763
0	102555	40293	1753
0	102561	40293	1743
0	102567	40293	1733
0	102573	40293	1723
0	102579	40293	1713
0	102585	40293	1703
0	102591	40293	1693
0	102597	40293	1683
0	102603	40293	1673
0	102609	40293	1663
0	102615	40293	1653
0	102621	40293	1643
0	102627	40293	1633
0	102633	40293	1623
0	102639	40293	1613
0	102645	40293	1603
0	102651	40293	1593
0	102657	40293	1583
0	102663	40293	1573
0	102669	40293	1563
0	102675	40293	1553
0	102681	40293	1543
0	102687	40293	1533
0	102693	40293	1523
0	102699	40293	1513
0	102705	40293	1503
0	102711	40293	1493
0	102717	40293	1483
0	102723	40293	1473
0	102729	40293	1463
0	102735	40293	1453
0	102741	40293	1443
0	102747	40293	1433
0	102753	40293	1423
0	102759	40293	1413
0	102765	40293	1403
0	102771	40293	1393
0	102777	40293	1383
0	102783	40293	1373
0	102789	40293	1363
0	102795	40293	1353
0	102801	40293	1343
0	102807	40293	1333
0	102813	40293	1323
0	102819	40293	1313
0	102825	40293	1303
0	102831	40293	1293
0	102837	40293	1283
0	102843	40293	1273
0	102849	40293	1263
0	102855	40293	1253
0	102861	40293	1243
0	102867	40293	1233
0	102873	40293	1223
0	102879	40293	1213
0	102885	40293	1203
0	102891	40293	1193
0	102897	40293	1183
0	102903	40293	1173
0	102909	40293	1163
0	102915	40293	1153
0	102921	40293	1143
0	102927	40293	1133
0	102933	40293	1123
0	102939	40293	1113
0	102945	40293	1103
0	102951	40293	1093
0	102957	40293	1083
0	102963	40293	1073
0	102969	40293	1063
0	102975	40293	1053
0	102981	40293	1043
0	102987	40293	1033
0	102993	40293	1023
0	102999	40293	1013
0	103005	40293	1003
0	103011	40293	993
0	103017	40293	983
0	103023	40293	973
0	103029	40293	963
0	103035	40293	953
0	103041	40293	943
0	103047	40293	933
0	103053	40293	923
0	103059	40293	913
0	103065	40293	903
0	103071	40293	893
0	103077	40293	883
0	103083	40293	873
0	103089	40293	863
0	103095	40293	853
0	103101	40293	843
0	103107	40293	833
0	103121	40303	833
0	103134	40313	833
0	103147	40323	833
0	103160	40333	833
0	103173	40343	833
0	103186	40353	833
0	103199	40363	833
0	103212	40373	833
0	103225	40383	833
0	103238	40393	833
0	103251	40403	833
0	103264	40413	833
0	103277	40423	833
0	103290	40433	833
0	103303	40443	833
0	103316	40453	833
0	103329	40463	833
0	103342	40473	833
0	103355	40483	833
0	103370	40493	833
0	103385	40503	833
0	103399	40513	833
0	103413	40523	833
0	103427	40533	833
0	103442	40543	833
0	103456	40553	833
0	103470	40563	833
0	103484	40573	833
0	103498	40583	833
0	103512	40593	833
0	103526	40603	833
0	103540	40613	833
0	103554	40623	833
0	103568	40633	833
0	103582	40643	833
0	103596	40653	833
0	103610	40663	833
0	103624	40673	833
0	103638	40683	833
0	103652	40693	833
0	103666	40703	833
0	103680	40713	833
0	103694	40723	833
0	103708	40733	833
0	103722	40743	833
0	103736	40753	833
0	103750	40763	833
0	107160	42728	2428
0	107167	42728	2418
0	107173	42728	2408
0	107179	42728	2398
0	107185	42728	2388
0	107191	42728	2378
0	107197	42728	2368
0	107203	42728	2358
0	107209	42728	2348
0	107215	42728	2338
0	107221	42728	2328
0	107227	42728	2318
0	107233	42728	2308
0	107239	42728	2298
0	107245	42728	2288
0	107251	42728	2278
0	107257	42728	2268
0	107263	42728	2258
0	107269	42728	2248
0	107275	42728	2238
0	107281	42728	2228
0	107287	42728	2218
0	107293	42728	2208
0	107299	42728	2198
0	107305	42728	2188
0	107311	42728	2178
0	107317	42728	2168
0	107323	42728	2158
0	107329	42728	2148
0	107335	42728	2138
0	107341	42728	2128
0	107347	42728	2118
0	107353	42728	2108
0	107359	42728	2098
0	107365	42728	2088
0	107371	42728	2078
0	107377	42728	2068
0	107383	42728	2058
0	107389	42728	2048
0	107395	42728	2038
0	107401	42728	2028
0	107407	42728	2018
0	107413	42728	2008
0	107419	42728	1998
0	107425	42728	1988
0	107431	42728	1978
0	107437	42728	1968
0	107443	42728	1958
0	107449	42728	1948
0	107455	42728	1938
0	107461	42728	1928
0	107467	42728	1918
0	107473	42728	1908
0	107479	42728	1898
0	107485	42728	1888
0	107491	42728	1878
0	107497	42728	1868
0	107503	42728	1858
0	107509	42728	1848
0	107515	42728	1838
0	107521	42728	1828
0	107527	42728	1818
0	107533	42728	1808
0	107539	42728	1798
0	107545	42728	1788
0	107551	42728	1778
0	107557	42728	1768
0	107563	42728	1758
0	107569	42728	1748
0	107575	42728	1738
0	107581	42728	1728
0	107587	42728	1718
0	107593	42728	1708
0	107599	42728	1698
0	107605	42728	1688
0	107611	42728	1678
0	107617	42728	1668
0	107623	42728	1658
0	107629	42728	1648
0	107635	42728	1638
0	107641	42728	1628
0	107647	42728	1618
0	107653	42728	1608
0	107659	42728	1598
0	107665	42728	1588
0	107671	42728	1578
0	107677	42728	1568
0	107683	42728	1558
0	107689	42728	1548
0	107695	42728	1538
0	107701	42728	1528
0	107707	42728	1518
0	107713	42728	1508
0	107719	42728	1498
0	107725	42728	1488
0	107731	42728	1478
0	107737	42728	1468
0	107743	42728	1458
0	107749	42728	1448
0	107755	42728	1438
0	107761	42728	1428
0	107767	42728	1418
0	107773	42728	1408
0	107779	42728	1398
0	107785	42728	1388
0	107791	42728	1378
0	107797	42728	1368
0	107803	42728	1358
0	107809	42728	1348
0	107815	42728	1338
0	107821	42728	1328
0	107827	42728	1318
0	107833	42728	1308
0	107839	42728	1298
0	107845	42728	1288
0	107851	42728	1278
0	107857	42728	1268
0	107863	42728	1258
0	107869	42728	1248
0	107875	42728	1238
0	107881	42728	1228
0	107887	42728	1218
0	107893	42728	1208
0	107899	42728	1198
0	107905	42728	1188
0	107911	42728	1178
0	107917	42728	1168
0	107923	42728	1158
0	107929	42728	1148
0	107935	42728	1138
0	107941	42728	1128
0	107947	42728	1118
0	107953	42728	1108
[...]
0	199881	74883	833
0	199916	74893	833
0	199951	74903	833
0	199986	74913	833
0	200021	74923	833
0	200056	74933	833
0	200091	74943	833
0	200126	74953	833
0	200161	74963	833
0	200196	74973	833
0	200231	74983	833
0	200266	74993	833
0	200301	75003	833
0	200336	75013	833
0	200371	75023	833
0	200406	75033	833
0	200441	75043	833
0	200476	75053	833
0	200511	75063	833
0	200546	75073	833
0	200583	75083	833
0	200619	75093	833
0	200655	75103	833
0	200691	75113	833
0	200727	75123	833
0	200763	75133	833
0	200799	75143	833
0	200835	75153	833
0	200871	75163	833
0	200907	75173	833
0	200943	75183	833
0	200979	75193	833
0	201015	75203	833
0	201051	75213	833
0	201087	75223	833
0	201123	75233	833
0	201159	75243	833
0	201195	75253	833
0	201231	75263	833
0	201267	75273	833
0	201303	75283	833
0	201339	75293	833
0	201375	75303	833
0	201411	75313	833
0	201447	75323	833
0	201483	75333	833
0	201519	75343	833
0	201555	75353	833
0	201591	75363	833
0	201627	75373	833
0	201663	75383	833
0	201699	75393	833
0	201735	75403	833
0	201771	75413	833
0	201807	75423	833
0	201846	75433	833
0	201883	75443	833
0	201920	75453	833
0	201957	75463	833
0	201994	75473	833
0	202031	75483	833
0	202068	75493	833
0	202105	75503	833
0	202142	75513	833
0	202179	75523	833
0	202216	75533	833
0	202253	75543	833
0	202290	75553	833
0	202327	75563	833
0	202364	75573	833
0	202401	75583	833
0	202438	75593	833
0	202475	75603	833
0	202512	75613	833
0	202549	75623	833
0	202586	75633	833
0	202623	75643	833
0	202660	75653	833
0	202697	75663	833
0	202734	75673	833
0	202771	75683	833
0	202808	75693	833
0	202845	75703	833
0	202882	75713	833
0	202919	75723	833
0	202956	75733	833
0	202993	75743	833
0	203030	75753	833
0	203067	75763	833
0	203104	75773	833
0	203141	75783	833
0	203178	75793	833
0	203215	75803	833
0	203252	75813	833
0	203289	75823	833
0	203326	75833	833
0	203363	75843	833
0	203400	75853	833
0	203437	75863	833
0	203474	75873	833
0	203511	75883	833
0	203548	75893	833
0	203584	75903	833
0	203620	75913	833
0	203656	75923	833
0	203692	75933	833
0	203727	75943	833
0	203762	75953	833
0	203797	75963	833
0	203832	75973	833
0	203867	75983	833
0	203902	75993	833
0	203937	76003	833
0	203972	76013	833
0	204007	76023	833
0	204042	76033	833
0	204077	76043	833
0	204115	76053	833
0	204151	76063	833
0	204187	76073	833
0	204223	76083	833
0	204259	76093	833
0	204295	76103	833
0	204331	76113	833
0	204367	76123	833
0	204403	76133	833
0	204438	76143	833
0	204473	76153	833
0	204508	76163	833
0	204543	76173	833
0	204578	76183	833
0	204615	76193	833
0	204650	76203	833
0	204685	76213	833
0	204720	76223	833
0	204755	76233	833
0	204790	76243	833
0	204825	76253	833
0	204860	76263	833
0	204895	76273	833
0	204930	76283	833
0	204965	76293	833
0	205000	76303	833
0	205035	76313	833
0	205070	76323	833
0	205105	76333	833
0	205140	76343	833
0	205175	76353	833
0	205210	76363	833
0	205245	76373	833
0	205280	76383	833
0	205315	76393	833
0	205350	76403	833
0	205385	76413	833
0	205420	76423	833
0	205455	76433	833
0	205490	76443	833
0	205525	76453	833
0	205560	76463	833
0	205595	76473	833
0	205632	76483	833
0	205668	76493	833
0	205704	76503	833
0	205739	76513	833
0	205777	76523	833
0	205813	76533	833
0	205849	76543	833
0	205885	76553	833
0	205921	76563	833
0	205957	76573	833
0	205993	76583	833
0	206029	76593	833
0	206065	76603	833
0	206101	76613	833
0	206139	76623	833
0	206176	76633	833
0	206192	76643	833
0	206207	76653	833
0	206222	76663	833
0	206237	76673	833
0	206252	76683	833
0	206266	76693	833
0	206280	76703	833
0	206294	76713	833
0	206308	76723	833
0	206322	76733	833
0	206336	76743	833
0	206350	76753	833
0	206364	76763	833
0	206378	76773	833
0	206392	76783	833
0	206406	76793	833
0	206420	76803	833
0	206434	76813	833
0	206448	76823	833
0	206462	76833	833
0	206476	76843	833
0	206490	76853	833
0	206504	76863	833
0	206518	76873	833
0	206532	76883	833
0	206546	76893	833
0	206560	76903	833
0	206574	76913	833
0	206588	76923	833
0	206602	76933	833
0	206616	76943	833
0	206630	76953	833
0	206644	76963	833
0	206658	76973	833
0	206673	76983	833
0	206687	76993	833
0	206701	77003	833
0	206717	77013	833
0	206731	77023	833
0	206745	77033	833
0	206761	77043	833
0	206775	77053	833
0	206789	77063	833
0	206805	77073	833
0	206820	77083	833
0	206835	77093	833
0	206850	77103	833
0	206865	77113	833
0	206880	77123	833
0	206895	77133	833
0	206910	77143	833
0	206925	77153	833
0	206942	77163	833
0	206957	77173	833
0	206972	77183	833
0	206988	77193	833
0	207003	77203	833
0	207018	77213	833
0	207033	77223	833
0	207048	77233	833
0	207063	77243	833
0	207078	77253	833
0	207093	77263	833
0	207108	77273	833
0	207123	77283	833
0	207138	77293	833
0	207153	77303	833
0	207168	77313	833
0	207183	77323	833
0	207198	77333	833
0	207213	77343	833
0	207228	77353	833
0	207243	77363	833
0	207258	77373	833
0	207273	77383	833
0	207288	77393	833
0	207303	77403	833
0	207318	77413	833
0	207333	77423	833
0	207348	77433	833
0	207363	77443	833
0	207380	77453	833
0	207395	77463	833
0	215919	83870	7230
0	215926	83870	7220
0	215932	83870	7210
0	215938	83870	7200
0	215944	83870	7190
0	215950	83870	7180
0	215956	83870	7170
0	215962	83870	7160
0	215968	83870	7150
0	215974	83870	7140
0	215980	83870	7130
0	215986	83870	7120
0	215992	83870	7110
0	215998	83870	7100
0	216004	83870	7090
0	216010	83870	7080
0	216016	83870	7070
0	216022	83870	7060
0	216028	83870	7050
0	216034	83870	7040
0	216040	83870	7030
0	216046	83870	7020
0	216052	83870	7010
0	216058	83870	7000
0	216064	83870	6990
0	216070	83870	6980
0	216076	83870	6970
0	216082	83870	6960
0	216088	83870	6950
0	216094	83870	6940
0	216100	83870	6930
0	216106	83870	6920
0	216112	83870	6910
0	216118	83870	6900
0	216124	83870	6890
0	216130	83870	6880
0	216136	83870	6870
0	216142	83870	6860
0	216148	83870	6850
0	216154	83870	6840
0	216160	83870	6830
0	216166	83870	6820
0	216172	83870	6810
0	216178	83870	6800
0	216184	83870	6790
0	216190	83870	6780
0	216196	83870	6770
0	216202	83870	6760
0	216208	83870	6750
0	216214	83870	6740
0	216220	83870	6730
0	216226	83870	6720
0	216232	83870	6710
0	216238	83870	6700
0	216244	83870	6690
0	216250	83870	6680
0	216256	83870	6670
0	216262	83870	6660
0	216268	83870	6650
0	216274	83870	6640
0	216280	83870	6630
0	216286	83870	6620
0	216292	83870	6610
0	216298	83870	6600
0	216304	83870	6590
0	216310	83870	6580
0	216316	83870	6570
0	216322	83870	6560
0	216328	83870	6550
0	216334	83870	6540
0	216340	83870	6530
0	216346	83870	6520
0	216352	83870	6510
0	216358	83870	6500
0	216364	83870	6490
0	216370	83870	6480
0	216376	83870	6470
0	216382	83870	6460
0	216388	83870	6450
0	216394	83870	6440
0	216400	83870	6430
0	216406	83870	6420
0	216412	83870	6410
0	216418	83870	6400
0	216424	83870	6390
0	216430	83870	6380
0	216436	83870	6370
0	216442	83870	6360
0	216448	83870	6350
0	216454	83870	6340
0	216460	83870	6330
0	216466	83870	6320
0	216472	83870	6310
0	216478	83870	6300
0	216484	83870	6290
0	216490	83870	6280
0	216496	83870	6270
0	216502	83870	6260
0	216508	83870	6250
0	216514	83870	6240
0	216520	83870	6230
0	216526	83870	6220
0	216532	83870	6210
0	216538	83870	6200
0	216544	83870	6190
0	216550	83870	6180
0	216556	83870	6170
0	216562	83870	6160
0	216568	83870	6150
0	216574	83870	6140
0	216580	83870	6130
0	216586	83870	6120
0	216592	83870	6110
0	216598	83870	6100
0	216604	83870	6090
0	216610	83870	6080
0	216616	83870	6070
0	216622	83870	6060
0	216628	83870	6050
0	216634	83870	6040
0	216640	83870	6030
0	216646	83870	6020
0	216652	83870	6010
0	216658	83870	6000
0	216664	83870	5990
0	216670	83870	5980
0	216676	83870	5970
0	216682	83870	5960
0	216688	83870	5950
0	216694	83870	5940
0	216700	83870	5930
0	216706	83870	5920
0	216712	83870	5910
0	216718	83870	5900
0	216724	83870	5890
0	216730	83870	5880
0	216736	83870	5870
0	216742	83870	5860
0	216748	83870	5850
0	216754	83870	5840
0	216760	83870	5830
0	216766	83870	5820
0	216772	83870	5810
0	216778	83870	5800
0	216784	83870	5790
0	216790	83870	5780
0	216796	83870	5770
0	216802	83870	5760
0	216808	83870	5750
0	216814	83870	5740
0	216820	83870	5730
0	216826	83870	5720
0	216832	83870	5710
0	216838	83870	5700
0	216844	83870	5690
0	216850	83870	5680
0	216856	83870	5670
0	216862	83870	5660
0	216868	83870	5650
0	216874	83870	5640
0	216880	83870	5630
0	216886	83870	5620
0	216892	83870	5610
0	216898	83870	5600
0	216904	83870	5590
0	216910	83870	5580
0	216916	83870	5570
0	216922	83870	5560
0	216928	83870	5550
0	216934	83870	5540
0	216940	83870	5530
0	216946	83870	5520
0	216952	83870	5510
0	216958	83870	5500
0	216964	83870	5490
0	216970	83870	5480
0	216976	83870	5470
0	216982	83870	5460
0	216988	83870	5450
0	216994	83870	5440
0	217000	83870	5430
0	217006	83870	5420
0	217012	83870	5410
0	217018	83870	5400
0	217024	83870	5390
0	217030	83870	5380
0	217036	83870	5370
0	217042	83870	5360
0	217048	83870	5350
0	217054	83870	5340
0	217060	83870	5330
0	217066	83870	5320
0	217072	83870	5310
0	217078	83870	5300
0	217084	83870	5290
0	217090	83870	5280
0	217096	83870	5270
0	217102	83870	5260
0	217108	83870	5250
0	217114	83870	5240
0	217120	83870	5230
0	217126	83870	5220
0	217132	83870	5210
0	217138	83870	5200
0	217144	83870	5190
0	217150	83870	5180
0	217156	83870	5170
0	217162	83870	5160
0	217168	83870	5150
0	217174	83870	5140
0	217180	83870	5130
0	217186	83870	5120
0	217192	83870	5110
0	217198	83870	5100
0	217204	83870	5090
0	217210	83870	5080
0	217216	83870	5070
0	217222	83870	5060
0	217228	83870	5050
0	217234	83870	5040
0	217240	83870	5030
0	217246	83870	5020
0	217252	83870	5010
0	217258	83870	5000
0	217264	83870	4990
0	217270	83870	4980
0	217276	83870	4970
0	217282	83870	4960
0	217288	83870	4950
0	217294	83870	4940
0	217300	83870	4930
0	217306	83870	4920
0	217312	83870	4910
0	217318	83870	4900
0	217324	83870	4890
0	217330	83870	4880
0	217336	83870	4870
0	217342	83870	4860
0	217348	83870	4850
0	217354	83870	4840
0	217360	83870	4830
0	217366	83870	4820
0	217372	83870	4810
0	217378	83870	4800
0	217384	83870	4790
0	217390	83870	4780
0	217396	83870	4770
0	217402	83870	4760
0	217408	83870	4750
0	217414	83870	4740
0	217420	83870	4730
0	217426	83870	4720
0	217432	83870	4710
0	217438	83870	4700
0	217444	83870	4690
0	217450	83870	4680
0	217456	83870	4670
0	217462	83870	4660
0	217468	83870	4650
0	217474	83870	4640
0	217480	83870	4630
0	217486	83870	4620
0	217492	83870	4610
0	217498	83870	4600
0	217504	83870	4590
0	217510	83870	4580
0	217516	83870	4570
0	217522	83870	4560
0	217528	83870	4550
0	217534	83870	4540
0	217540	83870	4530
0	217546	83870	4520
0	217552	83870	4510
0	217558	83870	4500
0	217564	83870	4490
0	217570	83870	4480
0	217576	83870	4470
0	217582	83870	4460
0	217588	83870	4450
0	217594	83870	4440
0	217600	83870	4430
0	217606	83870	4420
0	217612	83870	4410
0	217618	83870	4400
0	217624	83870	4390
0	217630	83870	4380
0	217636	83870	4370
0	217642	83870	4360
0	217648	83870	4350
0	217654	83870	4340
0	217660	83870	4330
0	217666	83870	4320
0	217672	83870	4310
0	217678	83870	4300
0	217684	83870	4290
0	217690	83870	4280
0	217696	83870	4270
0	217702	83870	4260
0	217708	83870	4250
0	217714	83870	4240
0	217720	83870	4230
0	217726	83870	4220
0	217732	83870	4210
0	217738	83870	4200
0	217744	83870	4190
0	217750	83870	4180
0	217756	83870	4170
0	217762	83870	4160
0	217768	83870	4150
0	217774	83870	4140
0	217780	83870	4130
0	217786	83870	4120
0	217792	83870	4110
0	217798	83870	4100
0	217804	83870	4090
0	217810	83870	4080
0	217816	83870	4070
0	217822	83870	4060
0	217828	83870	4050
0	217834	83870	4040
0	217840	83870	4030
0	217846	83870	4020
0	217852	83870	4010
0	217858	83870	4000
0	217864	83870	3990
0	217870	83870	3980
0	217876	83870	3970
0	217882	83870	3960
0	217888	83870	3950
0	217894	83870	3940
0	217900	83870	3930
0	217906	83870	3920
0	217912	83870	3910
0	217918	83870	3900
0	217924	83870	3890
0	217930	83870	3880
0	217936	83870	3870
0	217942	83870	3860
0	217948	83870	3850
0	217954	83870	3840
0	217960	83870	3830
0	217966	83870	3820
0	217972	83870	3810
0	217978	83870	3800
0	217984	83870	3790
0	217990	83870	3780
0	217996	83870	3770
0	218002	83870	3760
0	218008	83870	3750
0	218014	83870	3740
0	218020	83870	3730
0	218026	83870	3720
0	218032	83870	3710
0	218038	83870	3700
0	218044	83870	3690
0	218050	83870	3680
0	218056	83870	3670
0	218062	83870	3660
0	218068	83870	3650
0	218074	83870	3640
0	218080	83870	3630
0	218086	83870	3620
0	218092	83870	3610
0	218098	83870	3600
0	218104	83870	3590
0	218110	83870	3580
0	218116	83870	3570
0	218122	83870	3560
0	218128	83870	3550
0	218134	83870	3540
0	218140	83870	3530
0	218146	83870	3520
0	218152	83870	3510
0	218158	83870	3500
0	218164	83870	3490
0	218170	83870	3480
0	218176	83870	3470
0	218182	83870	3460
0	218188	83870	3450
0	218194	83870	3440
0	218200	83870	3430
0	218206	83870	3420
0	218212	83870	3410
0	218218	83870	3400
0	218224	83870	3390
0	218230	83870	3380
0	218236	83870	3370
0	218242	83870	3360
0	218248	83870	3350
0	218254	83870	3340
0	218260	83870	3330
0	218266	83870	3320
0	218272	83870	3310
0	218278	83870	3300
0	218284	83870	3290
0	218290	83870	3280
0	218296	83870	3270
0	218302	83870	3260
0	218308	83870	3250
0	218314	83870	3240
0	218320	83870	3230
0	218326	83870	3220
0	218332	83870	3210
0	218338	83870	3200
0	218344	83870	3190
0	218350	83870	3180
0	218356	83870	3170
0	218362	83870	3160
0	218368	83870	3150
0	218374	83870	3140
0	218380	83870	3130
0	218386	83870	3120
0	218392	83870	3110
0	218398	83870	3100
0	218404	83870	3090
0	218410	83870	3080
0	218416	83870	3070
0	218422	83870	3060
0	218428	83870	3050
0	218434	83870	3040
0	218440	83870	3030
0	218446	83870	3020
0	218452	83870	3010
0	218458	83870	3000
0	218464	83870	2990
0	218470	83870	2980
0	218476	83870	2970
0	218482	83870	2960
0	218488	83870	2950
0	218494	83870	2940
0	218500	83870	2930
0	218506	83870	2920
0	218512	83870	2910
0	218518	83870	2900
0	218524	83870	2890
0	218530	83870	2880
0	218536	83870	2870
0	218542	83870	2860
0	218548	83870	2850
0	218554	83870	2840
0	218560	83870	2830
0	218566	83870	2820
0	218572	83870	2810
0	218578	83870	2800
0	218584	83870	2790
0	218590	83870	2780
0	218596	83870	2770
0	218602	83870	2760
0	218608	83870	2750
0	218614	83870	2740
0	218620	83870	2730
0	218626	83870	2720
0	218632	83870	2710
0	218638	83870	2700
0	218644	83870	2690
0	218650	83870	2680
0	218656	83870	2670
0	218662	83870	2660
0	218668	83870	2650
0	218674	83870	2640
0	218680	83870	2630
0	218686	83870	2620
0	218692	83870	2610
0	218698	83870	2600
0	218704	83870	2590
0	218710	83870	2580
0	218716	83870	2570
0	218722	83870	2560
0	218728	83870	2550
0	218734	83870	2540
0	218740	83870	2530
0	218746	83870	2520
0	218752	83870	2510
0	218758	83870	2500
0	218764	83870	2490
0	218770	83870	2480
0	218776	83870	2470
0	218782	83870	2460
0	218788	83870	2450
0	218794	83870	2440
0	218800	83870	2430
0	218806	83870	2420
0	218812	83870	2410
0	218818	83870	2400
0	218824	83870	2390
0	218830	83870	2380
0	218836	83870	2370
0	218842	83870	2360
0	218848	83870	2350
0	218854	83870	2340
0	218860	83870	2330
0	218866	83870	2320
0	218872	83870	2310
0	218878	83870	2300
0	218884	83870	2290
0	218890	83870	2280
0	218896	83870	2270
0	218902	83870	2260
0	218908	83870	2250
0	218914	83870	2240
0	218920	83870	2230
0	218926	83870	2220
0	218932	83870	2210
0	218938	83870	2200
0	218944	83870	2190
0	218950	83870	2180
0	218956	83870	2170
0	218962	83870	2160
0	218968	83870	2150
0	218974	83870	2140
0	218980	83870	2130
0	218986	83870	2120
0	218992	83870	2110
0	218998	83870	2100
0	219004	83870	2090
0	219010	83870	2080
0	219016	83870	2070
0	219022	83870	2060
0	219028	83870	2050
0	219034	83870	2040
0	219040	83870	2030
0	219046	83870	2020
0	219052	83870	2010
0	219058	83870	2000
0	223544	85332	2612
0	223551	85332	2602
0	223557	85332	2592
0	223563	85332	2582
0	223569	85332	2572
0	223575	85332	2562
0	223581	85332	2552
0	223587	85332	2542
0	223593	85332	2532
0	223599	85332	2522
0	223605	85332	2512
0	223611	85332	2502
0	223617	85332	2492
0	223623	85332	2482
0	223629	85332	2472
0	223635	85332	2462
0	223641	85332	2452
0	223647	85332	2442
0	223653	85332	2432
0	223659	85332	2422
0	223665	85332	2412
0	223671	85332	2402
0	223677	85332	2392
0	223683	85332	2382
0	223689	85332	2372
0	223695	85332	2362
0	223701	85332	2352
0	223707	85332	2342
0	223713	85332	2332
0	223719	85332	2322
0	223725	85332	2312
0	223731	85332	2302
0	223737	85332	2292
0	223743	85332	2282
0	223749	85332	2272
0	223755	85332	2262
0	223761	85332	2252
0	223767	85332	2242
0	223773	85332	2232
0	223779	85332	2222
0	223785	85332	2212
0	223791	85332	2202
0	223797	85332	2192
0	223803	85332	2182
0	223809	85332	2172
0	223815	85332	2162
0	223821	85332	2152
0	223827	85332	2142
0	223833	85332	2132
0	223839	85332	2122
0	223845	85332	2112
0	223851	85332	2102
0	223857	85332	2092
0	223863	85332	2082
0	223869	85332	2072
0	223875	85332	2062
0	223881	85332	2052
0	223887	85332	2042
0	223893	85332	2032
0	223899	85332	2022
0	223905	85332	2012
0	223911	85332	2002
0	223917	85332	1992
0	223923	85332	1982
0	223929	85332	1972
0	223935	85332	1962
0	223941	85332	1952
0	223947	85332	1942
0	223953	85332	1932
0	223959	85332	1922
0	223965	85332	1912
0	223971	85332	1902
0	223977	85332	1892
0	223983	85332	1882
0	223989	85332	1872
0	223995	85332	1862
0	224001	85332	1852
0	224007	85332	1842
0	224013	85332	1832
0	224019	85332	1822
0	224025	85332	1812
0	224031	85332	1802
0	224037	85332	1792
0	224043	85332	1782
0	224049	85332	1772
0	224055	85332	1762
0	224061	85332	1752
0	224067	85332	1742
0	224073	85332	1732
0	224079	85332	1722
0	224085	85332	1712
0	224091	85332	1702
0	224097	85332	1692
0	224103	85332	1682
0	224109	85332	1672
0	224115	85332	1662
0	224121	85332	1652
0	224127	85332	1642
0	224133	85332	1632
0	224139	85332	1622
0	224145	85332	1612
0	224151	85332	1602
0	224157	85332	1592
0	224163	85332	1582
0	224169	85332	1572
0	224175	85332	1562
0	224181	85332	1552
0	224187	85332	1542
0	224193	85332	1532
0	224199	85332	1522
0	224205	85332	1512
0	224211	85332	1502
0	224217	85332	1492
0	224223	85332	1482
0	224229	85332	1472
0	224235	85332	1462
0	224241	85332	1452
0	224247	85332	1442
0	224253	85332	1432
0	224259	85332	1422
0	224265	85332	1412
0	224271	85332	1402
0	224277	85332	1392
0	224283	85332	1382
0	224289	85332	1372
0	224295	85332	1362
0	224301	85332	1352
0	224307	85332	1342
0	224313	85332	1332
0	224319	85332	1322
0	224325	85332	1312
0	224331	85332	1302
0	224337	85332	1292
0	224343	85332	1282
0	224349	85332	1272
0	224355	85332	1262
0	224361	85332	1252
0	224367	85332	1242
0	224373	85332	1232
0	224379	85332	1222
0	224385	85332	1212
0	224391	85332	1202
0	224397	85332	1192
0	224403	85332	1182
0	224409	85332	1172
0	224415	85332	1162
0	224421	85332	1152
0	224427	85332	1142
0	224433	85332	1132
0	224439	85332	1122
0	224445	85332	1112
0	224451	85332	1102
0	224457	85332	1092
0	224463	85332	1082
0	224469	85332	1072
0	224475	85332	1062
0	224481	85332	1052
0	224487	85332	1042
0	224493	85332	1032
0	224499	85332	1022
0	224505	85332	1012
0	224511	85332	1002
0	224517	85332	992
0	224523	85332	982
0	224529	85332	972
0	224535	85332	962
0	224541	85332	952
0	224547	85332	942
0	224553	85332	932
0	224559	85332	922
0	224565	85332	912
0	224571	85332	902
0	224577	85332	892
0	224583	85332	882
0	224589	85332	872
0	224595	85332	862
0	224601	85332	852
0	224607	85332	842
0	224616	85333	833
0	224646	85343	833
0	224676	85353	833
0	224708	85363	833
0	224739	85373	833
0	224770	85383	833
0	224801	85393	833
0	224832	85403	833
0	224863	85413	833
0	224894	85423	833
0	224925	85433	833
0	224956	85443	833
0	224987	85453	833
0	225018	85463	833
0	225049	85473	833
0	225080	85483	833
0	225111	85493	833
0	225142	85503	833
0	225173	85513	833
0	225204	85523	833
0	225235	85533	833
0	225266	85543	833
0	225297	85553	833
0	225328	85563	833
0	225361	85573	833
0	225393	85583	833
0	225425	85593	833
0	225457	85603	833
0	225489	85613	833
0	225521	85623	833
0	225553	85633	833
0	225585	85643	833
0	225617	85653	833
0	225649	85663	833
0	225681	85673	833
0	225713	85683	833
0	225745	85693	833
0	225777	85703	833
0	225809	85713	833
0	225841	85723	833
0	225873	85733	833
0	225905	85743	833
0	225937	85753	833
0	225969	85763	833
0	226001	85773	833
0	226037	85783	833
0	226070	85793	833
0	226103	85803	833
0	226136	85813	833
0	226169	85823	833
0	226201	85833	833
0	226233	85843	833
0	226265	85853	833
0	226297	85863	833
0	226330	85873	833


