version 2
run General-0-20250114-06:44:30-6006
attr configname General
attr datetime 20250114-06:44:30
attr experiment General
attr inifile shaw.ini
attr iterationvars ""
attr iterationvarsf ""
attr measurement ""
attr network src.dtnsim
attr processid 6006
attr repetition 0
attr replication #0
attr resultdir results
attr runnumber 0
attr seedset 0
param dtnsim.central.contactsFile "\"contactPlan/Contacts.txt\""
param dtnsim.central.contactsFile_A "\"contactPlan/Contacts_A.txt\""
param dtnsim.central.contactsFile_B "\"contactPlan/Contacts_B.txt\""
param dtnsim.central.contactIdsToDelete_from_celestialA "\"1 4 10 27 30 35 42 43 63 66 87 110 121 129 135 140 141 143 151 171 179 211 216 230 243 250 279 283 292 309 317 318 325 326 344 352 353 356 379 386 389 391 399 416 437 438 447 456 466 467 473 474 482\""
param dtnsim.central.contactIdsToDelete_from_celestialB "\"14 15 36 46 53 62 71 83 84 111 113 114 115 120 156 157 167 186 187 194 207 210 213 231 262 276 284 286 303 320 323 334 340 355 357 365 366 373 404 409 412 433 445 471 477 493 496\""
param dtnsim.central.celestialA_nodes "\"1 2 3\""
param dtnsim.central.celestialB_nodes "\"4 5 6\""
param dtnsim.central.locallyfaultsAware true
param dtnsim.central.mode_two_celestial true
param dtnsim.nodesNumber 6
param dtnsim.node[1].icon "\"receiverdish\""
param dtnsim.node[2..5].icon "\"satellite\""
param dtnsim.node[6].icon "\"receiverdish\""
param dtnsim.node[*].dtn.routing "\"cgrModel350\""
param dtnsim.node[*].dtn.routingType "\"routeListType:allPaths-firstEnding,volumeAware:allContacts,extensionBlock:on,contactPlan:global\""
param dtnsim.node[1].app.enable true
param dtnsim.node[*].app.custodyTransfer true
param dtnsim.node[1].app.bundlesNumber "\"2000\""
param dtnsim.node[1].app.start "\"0\""
param dtnsim.node[1].app.destinationEid "\"6\""
param dtnsim.node[1].app.size "\"1500\""
param dtnsim.node[1].app.interval 1

scalar dtnsim.node[0].app appBundleReceivedDelayvec:timeavg -nan
attr interpolationmode none
attr source appBundleReceivedDelay
attr title "appBundleReceivedDelayvec, timeavg"
scalar dtnsim.node[0].app appBundleReceivedDelayvec:mean -nan
attr interpolationmode none
attr source appBundleReceivedDelay
attr title "appBundleReceivedDelayvec, mean"
scalar dtnsim.node[0].app appBundleReceivedDelayvec:max nan
attr interpolationmode none
attr source appBundleReceivedDelay
attr title "appBundleReceivedDelayvec, max"
scalar dtnsim.node[0].app appBundleReceivedDelayvec:min nan
attr interpolationmode none
attr source appBundleReceivedDelay
attr title "appBundleReceivedDelayvec, min"
scalar dtnsim.node[1].app appBundleReceivedDelayvec:timeavg -nan
attr interpolationmode none
attr source appBundleReceivedDelay
attr title "appBundleReceivedDelayvec, timeavg"
scalar dtnsim.node[1].app appBundleReceivedDelayvec:mean -nan
attr interpolationmode none
attr source appBundleReceivedDelay
attr title "appBundleReceivedDelayvec, mean"
scalar dtnsim.node[1].app appBundleReceivedDelayvec:max nan
attr interpolationmode none
attr source appBundleReceivedDelay
attr title "appBundleReceivedDelayvec, max"
scalar dtnsim.node[1].app appBundleReceivedDelayvec:min nan
attr interpolationmode none
attr source appBundleReceivedDelay
attr title "appBundleReceivedDelayvec, min"
scalar dtnsim.node[2].app appBundleReceivedDelayvec:timeavg -nan
attr interpolationmode none
attr source appBundleReceivedDelay
attr title "appBundleReceivedDelayvec, timeavg"
scalar dtnsim.node[2].app appBundleReceivedDelayvec:mean -nan
attr interpolationmode none
attr source appBundleReceivedDelay
attr title "appBundleReceivedDelayvec, mean"
scalar dtnsim.node[2].app appBundleReceivedDelayvec:max nan
attr interpolationmode none
attr source appBundleReceivedDelay
attr title "appBundleReceivedDelayvec, max"
scalar dtnsim.node[2].app appBundleReceivedDelayvec:min nan
attr interpolationmode none
attr source appBundleReceivedDelay
attr title "appBundleReceivedDelayvec, min"
scalar dtnsim.node[3].app appBundleReceivedDelayvec:timeavg -nan
attr interpolationmode none
attr source appBundleReceivedDelay
attr title "appBundleReceivedDelayvec, timeavg"
scalar dtnsim.node[3].app appBundleReceivedDelayvec:mean -nan
attr interpolationmode none
attr source appBundleReceivedDelay
attr title "appBundleReceivedDelayvec, mean"
scalar dtnsim.node[3].app appBundleReceivedDelayvec:max nan
attr interpolationmode none
attr source appBundleReceivedDelay
attr title "appBundleReceivedDelayvec, max"
scalar dtnsim.node[3].app appBundleReceivedDelayvec:min nan
attr interpolationmode none
attr source appBundleReceivedDelay
attr title "appBundleReceivedDelayvec, min"
scalar dtnsim.node[4].app appBundleReceivedDelayvec:timeavg -nan
attr interpolationmode none
attr source appBundleReceivedDelay
attr title "appBundleReceivedDelayvec, timeavg"
scalar dtnsim.node[4].app appBundleReceivedDelayvec:mean -nan
attr interpolationmode none
attr source appBundleReceivedDelay
attr title "appBundleReceivedDelayvec, mean"
scalar dtnsim.node[4].app appBundleReceivedDelayvec:max nan
attr interpolationmode none
attr source appBundleReceivedDelay
attr title "appBundleReceivedDelayvec, max"
scalar dtnsim.node[4].app appBundleReceivedDelayvec:min nan
attr interpolationmode none
attr source appBundleReceivedDelay
attr title "appBundleReceivedDelayvec, min"
scalar dtnsim.node[5].app appBundleReceivedDelayvec:timeavg -nan
attr interpolationmode none
attr source appBundleReceivedDelay
attr title "appBundleReceivedDelayvec, timeavg"
scalar dtnsim.node[5].app appBundleReceivedDelayvec:mean -nan
attr interpolationmode none
attr source appBundleReceivedDelay
attr title "appBundleReceivedDelayvec, mean"
scalar dtnsim.node[5].app appBundleReceivedDelayvec:max nan
attr interpolationmode none
attr source appBundleReceivedDelay
attr title "appBundleReceivedDelayvec, max"
scalar dtnsim.node[5].app appBundleReceivedDelayvec:min nan
attr interpolationmode none
attr source appBundleReceivedDelay
attr title "appBundleReceivedDelayvec, min"
scalar dtnsim.node[6].app appBundleReceivedDelayvec:timeavg 67.554503330437
attr interpolationmode none
attr source appBundleReceivedDelay
attr title "appBundleReceivedDelayvec, timeavg"
scalar dtnsim.node[6].app appBundleReceivedDelayvec:mean 204.01650190114
attr interpolationmode none
attr source appBundleReceivedDelay
attr title "appBundleReceivedDelayvec, mean"
scalar dtnsim.node[6].app appBundleReceivedDelayvec:max 409.4
attr interpolationmode none
attr source appBundleReceivedDelay
attr title "appBundleReceivedDelayvec, max"
scalar dtnsim.node[6].app appBundleReceivedDelayvec:min 1.5
attr interpolationmode none
attr source appBundleReceivedDelay
attr title "appBundleReceivedDelayvec, min"

run General-0-20250114-06:27:44-3163
attr configname General
attr datetime 20250114-06:27:44
attr experiment General
attr inifile shaw.ini
attr iterationvars ""
attr iterationvarsf ""
attr measurement ""
attr network src.dtnsim
attr processid 3163
attr repetition 0
attr replication #0
attr resultdir results
attr runnumber 0
attr seedset 0
param dtnsim.central.contactsFile "\"contactPlan/Contacts.txt\""
param dtnsim.central.contactsFile_A "\"contactPlan/Contacts_A.txt\""
param dtnsim.central.contactsFile_B "\"contactPlan/Contacts_B.txt\""
param dtnsim.central.contactIdsToDelete_from_celestialA "\"2 9 17 20 22 32 54 79 99 123 126 130 136 147 158 171 186 190 198 217 247 261 282 289 295 306 336 337 355 384 411 427 440 460 469 473 484 486 499 504 506 507 514 527 576 586 592 595 596 607 627 643 645 655 669 672 677 689 693 702 717 718 725 735 755 761 765 775 781 787 789 794 799 802 823 827 846 850 865 876 879 884 893 912 918 927 951 957 969 972 983 987 993 1022 1023 1026 1035 1038 1040 1044 1046 1062 1079 1087 1096 1100 1101 1104 1120 1127 1131 1152 1163 1179 1201 1207 1238 1240 1251 1271 1279 1280 1286 1297 1300 1302 1306 1309 1310 1317 1321 1324 1343 1352 1358 1365 1366 1376 1390 1394 1408 1420 1425 1426 1435 1441 1444 1454 1455 1471 1476 1491 1508 1514 1516 1517 1518 1524 1529 1536 1537 1541 1546 1548 1552 1554 1560 1582 1601 1606 1611 1621 1625 1631 1642 1654 1656 1667 1671 1679 1698 1704 1711 1725 1726 1727 1732 1744 1746 1748 1757 1759 1769 1781 1783 1785 1791 1800 1802 1807 1846 1852 1889 1891 1902 1913 1954 1955 1960 1971 1973 1983 1984 2010 2011 2019 2037 2040 2041 2043 2044 2047 2051 2052 2069 2073 2086 2104 2119 2136 2138 2144 2163 2194 2219 2223 2232 2233 2236 2248 2263 2268 2279 2296 2299 2302 2307 2314 2317 2325 2326 2330 2341 2350 2360 2366 2368 2381 2393 2419 2434 2457 2468 2474 2481 2489 2515 2529 2542 2557 2558 2578 2588 2607 2613 2655 2661 2672 2689 2702 2703 2709 2713 2748 2753 2770 2779 2780 2784 2797 2800 2806 2818 2819 2827 2848 2857 2875 2880 2889 2894 2896 2899 2904 2920 2921 2923 2931 2936 2964 2983 3014 3016 3020 3029 3040 3041 3044 3052 3058 3073 3080 3084 3097 3108 3111 3119 3128 3129 3151 3158 3159 3173 3231 3244 3254 3257 3259 3272 3275 3300 3303 3310 3317 3328 3330 3336 3349 3354 3355 3358 3370 3378 3381 3396 3400 3405 3439 3441 3473 3475 3490 3537 3539 3542 3544 3560 3561 3594 3607 3615 3638 3648 3660 3666 3757 3758 3797 3810 3816 3827 3845 3853 3868 3892 3910 3925 3973 3981 3988 4034 4061 4077 4101 4104 4119 4126 4135 4154 4165 4166 4167 4171 4175 4176 4197 4226 4227 4237 4265 4267 4277 4298 4344 4354 4357 4369 4392 4402 4406 4409 4420 4426 4430 4436 4438 4441 4445 4455 4457 4470 4483 4490 4491 4502 4515 4517 4519 4532 4537 4538 4553 4561 4572 4575 4585 4606 4629 4632 4645 4673 4685 4694 4709 4713 4724 4731 4751 4755 4760 4767 4791 4792 4806 4809 4810 4816 4818 4834 4837 4839 4848 4850 4851 4854 4859 4868 4871 4879 4881 4885 4898 4908 4917 4940 4961 4964 4965 4975 4978\""
param dtnsim.central.contactIdsToDelete_from_celestialB "\"19 23 26 35 46 61 76 77 92 118 121 132 137 152 167 188 194 206 209 218 225 252 273 276 281 285 286 296 299 307 315 352 366 367 373 379 383 394 400 403 438 464 485 494 528 539 549 563 568 570 571 579 588 599 605 640 646 674 711 715 730 733 742 747 752 759 764 766 767 769 777 795 808 814 815 822 825 839 845 848 854 866 868 873 882 892 905 924 937 941 945 961 964 979 988 995 1001 1004 1011 1018 1027 1036 1039 1064 1067 1070 1071 1080 1097 1098 1099 1114 1140 1155 1164 1170 1181 1194 1211 1232 1235 1241 1245 1246 1273 1285 1290 1294 1303 1311 1323 1326 1328 1347 1348 1349 1364 1368 1370 1386 1389 1395 1409 1412 1419 1423 1433 1437 1440 1456 1463 1474 1486 1494 1497 1499 1500 1509 1519 1520 1530 1539 1545 1562 1576 1579 1585 1591 1596 1597 1607 1609 1626 1627 1628 1651 1653 1681 1706 1712 1719 1730 1735 1736 1739 1747 1751 1758 1790 1793 1822 1838 1840 1847 1848 1859 1860 1872 1874 1876 1894 1901 1907 1922 1948 1993 1997 2009 2033 2034 2045 2061 2065 2078 2097 2101 2118 2123 2131 2139 2154 2155 2180 2204 2207 2252 2266 2276 2280 2282 2288 2290 2310 2328 2338 2349 2361 2365 2369 2373 2408 2414 2426 2428 2440 2450 2460 2486 2496 2518 2524 2540 2551 2563 2569 2581 2589 2598 2632 2646 2647 2652 2665 2667 2682 2706 2714 2716 2724 2727 2729 2730 2735 2739 2744 2746 2756 2773 2776 2786 2803 2807 2817 2824 2832 2845 2847 2868 2869 2879 2905 2907 2912 2922 2929 2932 2939 2947 2955 2957 2973 2974 2976 2981 2988 2993 2996 3026 3032 3037 3049 3050 3076 3083 3096 3098 3110 3114 3143 3148 3168 3171 3176 3177 3193 3198 3202 3203 3207 3214 3242 3255 3262 3268 3273 3279 3289 3314 3323 3335 3363 3380 3387 3389 3403 3406 3418 3427 3432 3434 3448 3476 3483 3489 3494 3496 3512 3518 3536 3547 3571 3587 3588 3599 3612 3613 3625 3637 3640 3652 3662 3665 3668 3670 3680 3693 3694 3699 3704 3706 3713 3716 3724 3729 3731 3764 3786 3809 3812 3813 3820 3836 3849 3852 3854 3866 3869 3882 3884 3890 3895 3897 3905 3907 3926 3930 3933 3940 3965 3966 3987 3995 4018 4021 4025 4028 4035 4052 4109 4121 4137 4147 4149 4152 4158 4173 4190 4202 4212 4214 4217 4224 4225 4245 4258 4266 4278 4286 4296 4306 4312 4320 4321 4323 4326 4334 4347 4360 4371 4374 4385 4386 4412 4447 4456 4465 4487 4493 4499 4525 4529 4555 4564 4588 4593 4604 4612 4623 4628 4635 4644 4664 4671 4672 4674 4675 4677 4682 4686 4688 4697 4708 4711 4718 4738 4739 4741 4748 4763 4765 4768 4786 4789 4794 4798 4803 4807 4819 4832 4833 4853 4864 4874 4894 4943 4948 4949 4986 4987 4991\""
param dtnsim.central.celestialA_nodes "\"1 2 3\""
param dtnsim.central.celestialB_nodes "\"4 5 6\""
param dtnsim.central.locallyfaultsAware true
param dtnsim.central.mode_two_celestial true
param dtnsim.nodesNumber 6
param dtnsim.node[1].icon "\"receiverdish\""
param dtnsim.node[2..5].icon "\"satellite\""
param dtnsim.node[6].icon "\"receiverdish\""
param dtnsim.node[*].dtn.routing "\"cgrModel350\""
param dtnsim.node[*].dtn.routingType "\"routeListType:allPaths-firstEnding,volumeAware:allContacts,extensionBlock:on,contactPlan:global\""
param dtnsim.node[1].app.enable true
param dtnsim.node[*].app.custodyTransfer true
param dtnsim.node[1].app.bundlesNumber "\"2000\""
param dtnsim.node[1].app.start "\"0\""
param dtnsim.node[1].app.destinationEid "\"6\""
param dtnsim.node[1].app.size "\"1500\""
param dtnsim.node[1].app.interval 1

scalar dtnsim.node[0].app appBundleReceivedDelayvec:timeavg -nan
attr interpolationmode none
attr source appBundleReceivedDelay
attr title "appBundleReceivedDelayvec, timeavg"
scalar dtnsim.node[0].app appBundleReceivedDelayvec:mean -nan
attr interpolationmode none
attr source appBundleReceivedDelay
attr title "appBundleReceivedDelayvec, mean"
scalar dtnsim.node[0].app appBundleReceivedDelayvec:max nan
attr interpolationmode none
attr source appBundleReceivedDelay
attr title "appBundleReceivedDelayvec, max"
scalar dtnsim.node[0].app appBundleReceivedDelayvec:min nan
attr interpolationmode none
attr source appBundleReceivedDelay
attr title "appBundleReceivedDelayvec, min"
scalar dtnsim.node[1].app appBundleReceivedDelayvec:timeavg -nan
attr interpolationmode none
attr source appBundleReceivedDelay
attr title "appBundleReceivedDelayvec, timeavg"
scalar dtnsim.node[1].app appBundleReceivedDelayvec:mean -nan
attr interpolationmode none
attr source appBundleReceivedDelay
attr title "appBundleReceivedDelayvec, mean"
scalar dtnsim.node[1].app appBundleReceivedDelayvec:max nan
attr interpolationmode none
attr source appBundleReceivedDelay
attr title "appBundleReceivedDelayvec, max"
scalar dtnsim.node[1].app appBundleReceivedDelayvec:min nan
attr interpolationmode none
attr source appBundleReceivedDelay
attr title "appBundleReceivedDelayvec, min"
scalar dtnsim.node[2].app appBundleReceivedDelayvec:timeavg -nan
attr interpolationmode none
attr source appBundleReceivedDelay
attr title "appBundleReceivedDelayvec, timeavg"
scalar dtnsim.node[2].app appBundleReceivedDelayvec:mean -nan
attr interpolationmode none
attr source appBundleReceivedDelay
attr title "appBundleReceivedDelayvec, mean"
scalar dtnsim.node[2].app appBundleReceivedDelayvec:max nan
attr interpolationmode none
attr source appBundleReceivedDelay
attr title "appBundleReceivedDelayvec, max"
scalar dtnsim.node[2].app appBundleReceivedDelayvec:min nan
attr interpolationmode none
attr source appBundleReceivedDelay
attr title "appBundleReceivedDelayvec, min"
scalar dtnsim.node[3].app appBundleReceivedDelayvec:timeavg -nan
attr interpolationmode none
attr source appBundleReceivedDelay
attr title "appBundleReceivedDelayvec, timeavg"
scalar dtnsim.node[3].app appBundleReceivedDelayvec:mean -nan
attr interpolationmode none
attr source appBundleReceivedDelay
attr title "appBundleReceivedDelayvec, mean"
scalar dtnsim.node[3].app appBundleReceivedDelayvec:max nan
attr interpolationmode none
attr source appBundleReceivedDelay
attr title "appBundleReceivedDelayvec, max"
scalar dtnsim.node[3].app appBundleReceivedDelayvec:min nan
attr interpolationmode none
attr source appBundleReceivedDelay
attr title "appBundleReceivedDelayvec, min"
scalar dtnsim.node[4].app appBundleReceivedDelayvec:timeavg -nan
attr interpolationmode none
attr source appBundleReceivedDelay
attr title "appBundleReceivedDelayvec, timeavg"
scalar dtnsim.node[4].app appBundleReceivedDelayvec:mean -nan
attr interpolationmode none
attr source appBundleReceivedDelay
attr title "appBundleReceivedDelayvec, mean"
scalar dtnsim.node[4].app appBundleReceivedDelayvec:max nan
attr interpolationmode none
attr source appBundleReceivedDelay
attr title "appBundleReceivedDelayvec, max"
scalar dtnsim.node[4].app appBundleReceivedDelayvec:min nan
attr interpolationmode none
attr source appBundleReceivedDelay
attr title "appBundleReceivedDelayvec, min"
scalar dtnsim.node[5].app appBundleReceivedDelayvec:timeavg -nan
attr interpolationmode none
attr source appBundleReceivedDelay
attr title "appBundleReceivedDelayvec, timeavg"
scalar dtnsim.node[5].app appBundleReceivedDelayvec:mean -nan
attr interpolationmode none
attr source appBundleReceivedDelay
attr title "appBundleReceivedDelayvec, mean"
scalar dtnsim.node[5].app appBundleReceivedDelayvec:max nan
attr interpolationmode none
attr source appBundleReceivedDelay
attr title "appBundleReceivedDelayvec, max"
scalar dtnsim.node[5].app appBundleReceivedDelayvec:min nan
attr interpolationmode none
attr source appBundleReceivedDelay
attr title "appBundleReceivedDelayvec, min"
scalar dtnsim.node[6].app appBundleReceivedDelayvec:timeavg -nan
attr interpolationmode none
attr source appBundleReceivedDelay
attr title "appBundleReceivedDelayvec, timeavg"
scalar dtnsim.node[6].app appBundleReceivedDelayvec:mean -nan
attr interpolationmode none
attr source appBundleReceivedDelay
attr title "appBundleReceivedDelayvec, mean"
scalar dtnsim.node[6].app appBundleReceivedDelayvec:max nan
attr interpolationmode none
attr source appBundleReceivedDelay
attr title "appBundleReceivedDelayvec, max"
scalar dtnsim.node[6].app appBundleReceivedDelayvec:min nan
attr interpolationmode none
attr source appBundleReceivedDelay
attr title "appBundleReceivedDelayvec, min"


