version 2
run General-0-20250114-11:26:41-64553
attr configname General
attr datetime 20250114-11:26:41
attr experiment General
attr inifile shaw.ini
attr iterationvars ""
attr iterationvarsf ""
attr measurement ""
attr network src.dtnsim
attr processid 64553
attr repetition 0
attr replication #0
attr resultdir results
attr runnumber 0
attr seedset 0
param dtnsim.central.contactsFile "\"contactPlan/Contacts.txt\""
param dtnsim.central.contactsFile_A "\"contactPlan/Contacts_A.txt\""
param dtnsim.central.contactsFile_B "\"contactPlan/Contacts_B.txt\""
param dtnsim.central.contactIdsToDelete_from_celestialA "\"2 4 6 10 28 43 45 47 52 54 56 60 63 67 72 76 86 87 96 97 99 100 102 104 106 121 123 125 126 127 130 139 143 150 154 160 162 168 169 179 181 184 189 192 195 202 203 204 205 208 209 216 217 227 230 236 239 240 243 244 245 246 252 254 255 260 263 267 269 276 289 293 296 299 312 313 317 322 330 333 339 340 342 343 346 350 351 359 362 371 372 373 374 379 382 395 397 402 411 412 413 420 426 427 434 445 447 459 461 462 468 472 479 487 488 497 503 510 520 525 526 537 538 542 543 553 559 568 570 571 575 584 585 587 589 595 597 601 602 612 614 629 633 637 639 646 651 652 654 662 665 666 671 678 686 688 689 690 703 707 715 719 723 726 727 728 729 731 736 747 749 753 754 755 760 762 768 769 771 781 788 801 805 809 811 814 816 817 818 819 820 821 824 842 844 847 851 854 855 858 860 865 876 877 881 882 893 895 896 901 919 922 925 934 939 940 945 946 955 956 962 978 979 985 987 988 991 995\""
param dtnsim.central.contactIdsToDelete_from_celestialB "\"15 17 22 26 50 61 77 85 89 95 134 158 167 172 177 212 213 231 264 275 307 310 326 329 348 354 356 369 380 398 416 437 440 456 494 505 521 522 534 557 576 598 617 627 630 632 638 659 674 683 705 730 744 745 774 783 826 828 830 837 884 886 909 914 928 932 950 951 959 968 990 998\""
param dtnsim.central.celestialA_nodes "\"1 2 3\""
param dtnsim.central.celestialB_nodes "\"4 5 6\""
param dtnsim.central.locallyfaultsAware true
param dtnsim.central.mode_two_celestial true
param dtnsim.nodesNumber 6
param dtnsim.node[1].icon "\"receiverdish\""
param dtnsim.node[2..5].icon "\"satellite\""
param dtnsim.node[6].icon "\"receiverdish\""
param dtnsim.node[*].dtn.routing "\"cgrModel350\""
param dtnsim.node[*].dtn.routingType "\"routeListType:allPaths-firstEnding,volumeAware:allContacts,extensionBlock:on,contactPlan:global\""
param dtnsim.node[1].app.enable true
param dtnsim.node[*].app.custodyTransfer true
param dtnsim.node[1].app.bundlesNumber "\"1000\""
param dtnsim.node[1].app.start "\"0\""
param dtnsim.node[1].app.destinationEid "\"6\""
param dtnsim.node[1].app.size "\"1500\""
param dtnsim.node[1].app.interval 1

vector 0 dtnsim.node[6].app appBundleReceivedDelayvec:vector ETV
attr interpolationmode none
attr source appBundleReceivedDelay
attr title "appBundleReceivedDelayvec, vector"
0	290	20	20
0	301	20	19
0	308	20	18
0	314	20	17
0	320	20	16
0	326	20	15
0	332	20	14
0	338	20	13
0	344	20	12
0	350	20	11
0	356	20	10
0	362	20	9
0	368	20	8
0	374	20	7
0	380	20	6
0	386	20	5
0	392	20	4
0	398	20	3
0	404	20	2
0	410	20	1
0	426	21	1
0	453	22	1
0	475	23	1
0	498	24	1
0	521	25	1
0	545	26	1
0	570	27	1
0	597	28	1
0	620	29	1
0	644	30	1
0	666	31	1
0	689	32	1
0	713	33	1
0	735	34	1
0	759	35	1
0	781	36	1
0	810	37	1
0	830	38	1
0	853	39	1
0	875	40	1
0	898	41	1
0	921	42	1
0	943	43	1
0	991	45	1
0	1014	46	1
0	1045	47	1
0	1067	48	5
0	1080	48	1
0	1109	49	1
0	1138	50	1
0	1168	51	1
0	1196	52	1
0	1226	53	1
0	1256	54	1
0	1288	55	1
0	1317	56	1
0	1345	57	1
0	1375	58	1
0	1410	59	1
0	1441	60	1
0	1473	61	1
0	1505	62	1
0	1535	63	1
0	1566	64	1
0	1592	65	1
0	1618	66	1
0	1645	67	1
0	1707	69	1
0	1725	69	2
0	1748	70	1
0	1780	71	1
0	1814	72	1
0	1847	73	1
0	1883	74	1
0	1921	75	1
0	1966	76	1
0	2009	77	1
0	2048	78	1
0	2076	79	1
0	2108	80	1
0	2137	81	1
0	2168	82	1
0	2197	83	1
0	2227	84	1
0	2258	85	1
0	2289	86	1
0	2320	87	1
0	2351	88	1
0	2388	89	1
0	2418	90	1
0	2453	91	1
0	2485	92	1
0	2518	93	1
0	3611	122	115
0	3633	122	15
0	3643	122	114
0	3650	122	14
0	3656	122	113
0	3662	122	13
0	3668	122	112
0	3674	122	12
0	3680	122	111
0	3686	122	11
0	3692	122	110
0	3698	122	10
0	3704	122	109
0	3710	122	9
0	3716	122	108
0	3722	122	8
0	3728	122	107
0	3734	122	7
0	3740	122	106
0	3746	122	6
0	3752	122	105
0	3758	122	5
0	3764	122	104
0	3770	122	4
0	3776	122	122
0	3782	122	121
0	3788	122	120
0	3794	122	119
0	3800	122	118
0	3806	122	117
0	3812	122	116
0	3818	122	115
0	3824	122	114
0	3830	122	113
0	3836	122	112
0	3842	122	111
0	3848	122	110
0	3854	122	109
0	3860	122	108
0	3866	122	107
0	3872	122	106
0	3878	122	105
0	3884	122	104
0	3890	122	103
0	3896	122	122
0	3902	122	121
0	3908	122	103
0	3914	122	120
0	3920	122	3
0	3926	122	119
0	3932	122	118
0	3938	122	117
0	3944	122	116
0	3950	122	115
0	3956	122	114
0	3962	122	113
0	3968	122	112
0	3974	122	111
0	3980	122	110
0	3986	122	109
0	3992	122	108
0	3998	122	107
0	4004	122	106
0	4010	122	105
0	4016	122	104
0	4022	122	103
0	4028	122	102
0	4034	122	102
0	4040	122	102
0	4046	122	2
0	4052	122	101
0	4058	122	101
0	4064	122	101
0	4070	122	1
0	4098	123	101
0	4123	123	101
0	4138	123	101
0	4148	123	1
0	4176	124	101
0	4201	124	101
0	4216	124	101
0	4226	124	1
0	4254	125	101
0	4269	125	101
0	4283	125	101
0	4293	125	1
0	4324	126	101
0	4339	126	101
0	4349	126	101
0	4358	126	1
0	4388	127	101
0	4404	127	101
0	4414	127	101
0	4423	127	1
0	4454	128	101
0	4471	128	101
0	4481	128	101
0	4490	128	1
0	4519	129	101
0	4535	129	101
0	4545	129	101
0	4554	129	1
0	4583	130	101
0	4600	130	101
0	4610	130	101
0	4619	130	1
0	4649	131	101
0	4669	131	101
0	4679	131	101
0	4686	131	1
0	4711	132	101
0	4755	133	101
0	4798	134	101
0	4843	135	101
0	4853	135	42
0	4871	135	41
0	4882	135	40
0	4889	135	39
0	4895	135	38
0	4901	135	37
0	4907	135	36
0	4913	135	35
0	4919	135	34
0	4925	135	33
0	4931	135	135
0	4937	135	134
0	4943	135	133
0	4949	135	132
0	4955	135	32
0	4961	135	131
0	4967	135	31
0	4973	135	130
0	4979	135	30
0	4985	135	129
0	4991	135	29
0	4997	135	104
0	5003	135	4
0	5009	135	103
0	5015	135	3
0	5021	135	102
0	5027	135	2
0	5033	135	101
0	5039	135	1
0	5064	136	101
0	5073	136	101
0	5091	136	1
0	5122	137	101
0	5132	137	101
0	5149	137	1
0	5178	138	101
0	5196	138	101
0	5206	138	1
0	5230	139	101
0	5249	139	101
0	5259	139	1
0	5286	140	101
0	5305	140	101
0	5315	140	1
0	5339	141	101
0	5357	141	101
0	5367	141	1
0	5393	142	101
0	5411	142	101
0	5421	142	1
0	5446	143	101
0	5461	143	101
0	5471	143	1
0	5560	144	113
0	5576	144	112
0	5586	144	111
0	5593	144	110
0	5599	144	109
0	5605	144	108
0	5611	144	107
0	5617	144	106
0	5623	144	105
0	5629	144	104
0	5635	144	103
0	5641	144	102
0	5647	144	101
0	5653	144	101
0	5659	144	1
0	5683	145	101
0	5700	145	101
0	5710	145	101
0	5719	145	1
0	5744	146	101
0	5760	146	101
0	5770	146	101
0	5779	146	1
0	5805	147	101
0	5822	147	101
0	5832	147	101
0	5841	147	1
0	5862	148	105
0	5875	148	101
0	5891	148	101
0	5901	148	101
0	5910	148	1
0	5937	149	101
0	5953	149	101
0	5963	149	101
0	5972	149	1
0	6000	150	101
0	6017	150	101
0	6027	150	101
0	6036	150	1
0	6061	151	101
0	6077	151	101
0	6087	151	101
0	6096	151	1
0	6123	152	101
0	6137	152	101
0	6147	152	101
0	6156	152	1
0	6182	153	101
0	6196	153	101
0	6206	153	101
0	6215	153	1
0	6242	154	101
0	6256	154	101
0	6266	154	101
0	6275	154	1
0	6305	155	101
0	6323	155	101
0	6334	155	101
0	6343	155	1
0	6371	156	101
0	6387	156	101
0	6398	156	101
0	6407	156	1
0	6435	157	101
0	6452	157	101
0	6464	157	101
0	6473	157	1
0	6503	158	101
0	6523	158	101
0	6536	158	101
0	6545	158	1
0	6573	159	101
0	6592	159	101
0	6605	159	101
0	6614	159	1
0	6642	160	101
0	6660	160	101
0	6673	160	101
0	6682	160	1
0	6709	161	101
0	6727	161	101
0	6740	161	101
0	6749	161	1
0	6775	162	101
0	6793	162	101
0	6806	162	101
0	6815	162	1
0	6841	163	101
0	6859	163	101
0	6872	163	101
0	6881	163	1
0	6906	164	101
0	6924	164	101
0	6937	164	101
0	6946	164	1
0	6973	165	101
0	6990	165	101
0	7002	165	101
0	7011	165	1
0	7036	166	101
0	7083	167	101
0	7173	169	102
0	7428	175	110
0	7442	175	110
0	7454	175	10
0	7461	175	109
0	7467	175	109
0	7473	175	9
0	7479	175	108
0	7485	175	108
0	7491	175	8
0	7497	175	107
0	7503	175	108
0	7509	175	107
0	7515	175	107
0	7521	175	7
0	7527	175	106
0	7533	175	106
0	7539	175	106
0	7545	175	6
0	7551	175	105
0	7557	175	105
0	7563	175	105
0	7569	175	5
0	7575	175	104
0	7581	175	104
0	7587	175	104
0	7593	175	4
0	7599	175	103
0	7605	175	103
0	7611	175	103
0	7617	175	3
0	7623	175	102
0	7629	175	102
0	7635	175	102
0	7641	175	2
0	7647	175	101
0	7653	175	101
0	7659	175	101
0	7665	175	1
0	7692	176	101
0	7704	176	101
0	7719	176	101
0	7731	176	101
0	7738	176	1
0	7766	177	101
0	7777	177	101
0	7793	177	101
0	7805	177	101
0	7812	177	1
0	7840	178	101
0	7850	178	101
0	7871	178	101
0	7888	178	101
0	7896	178	1
0	7922	179	101
0	7935	179	101
0	7955	179	101
0	7973	179	1
0	7999	180	101
0	8011	180	101
0	8032	180	101
0	8049	180	1
0	8075	181	101
0	8087	181	101
0	8108	181	101
0	8125	181	1
0	8153	182	101
0	8167	182	101
0	8188	182	101
0	8206	182	1
0	8233	183	101
0	8244	183	101
0	8267	183	101
0	8284	183	1
0	8311	184	101
0	8323	184	101
0	8346	184	101
0	8364	184	1
0	8389	185	101
0	8401	185	101
0	8424	185	101
0	8442	185	1
0	8467	186	101
0	8491	186	101
0	8509	186	101
0	8519	186	1
0	8546	187	101
0	8571	187	101
0	8589	187	101
0	8600	187	1
0	8625	188	101
0	8649	188	101
0	8667	188	101
0	8677	188	1
0	8701	189	101
0	8725	189	101
0	8743	189	101
0	8753	189	1
0	8778	190	101
0	8803	190	101
0	8821	190	101
0	8831	190	1
0	8855	191	101
0	8880	191	101
0	8898	191	101
0	8908	191	1
0	8934	192	101
0	8961	192	101
0	8981	192	101
0	8991	192	1
0	9011	193	101
0	9024	193	101
0	9031	193	101
0	9037	193	1
0	9056	194	101
0	9077	195	101
0	9097	196	101
0	9129	197	101
0	9351	198	101
0	9378	198	105
0	9396	198	5
0	9404	198	104
0	9410	198	4
0	9416	198	103
0	9422	198	3
0	9428	198	102
0	9434	198	2
0	9440	198	101
0	9446	198	1
0	9474	199	101
0	9502	199	101
0	9519	199	1
0	9550	200	101
0	9576	200	101
0	9592	200	1
0	9620	201	101
0	9646	201	101
0	9662	201	1
0	9689	202	101
0	9710	202	101
0	9720	202	1
0	9754	203	101
0	9778	203	1
0	9888	204	102
0	9912	204	204
0	9927	204	204
0	9943	204	203
0	9950	204	203
0	9956	204	202
0	9962	204	202
0	9968	204	201
0	9974	204	201
0	9980	204	101
0	9986	204	101
0	9992	204	1
0	10026	205	201
0	10051	205	201
0	10071	205	101
0	10091	205	101
0	10102	205	1
0	10138	206	201
0	10163	206	101
0	10183	206	201
0	10203	206	101
0	10214	206	1
0	10256	207	201
0	10277	207	101
0	10302	207	201
0	10318	207	101
0	10333	207	1
0	10379	208	201
0	10400	208	101
0	10424	208	201
0	10440	208	101
0	10454	208	1
0	10499	209	201
0	10520	209	101
0	10544	209	201
0	10560	209	101
0	10574	209	1
0	10646	210	201
0	10675	210	101
0	10696	210	201
0	10715	210	101
0	10727	210	1
0	10794	211	201
0	10824	211	101
0	10845	211	201
0	10864	211	101
0	10876	211	1
0	10925	212	201
0	10941	212	101
0	10953	212	201
0	10964	212	101
0	10971	212	1
0	11007	213	1
0	11074	214	1
0	11292	215	203
0	11319	215	103
0	11340	215	202
0	11360	215	102
0	11376	215	201
0	11388	215	101
0	11399	215	203
0	11410	215	103
0	11421	215	202
0	11432	215	102
0	11443	215	201
0	11454	215	101
0	11461	215	1
0	11528	216	201
0	11556	216	101
0	11579	216	201
0	11600	216	101
0	11614	216	1
0	11681	217	201
0	11708	217	101
0	11733	217	201
0	11752	217	101
0	11768	217	1
0	11833	218	201
0	11859	218	101
0	11884	218	201
0	11903	218	101
0	11919	218	1
0	12010	219	201
0	12036	219	101
0	12061	219	201
0	12080	219	101
0	12096	219	1
0	12267	220	220
0	12294	220	219
0	12319	220	218
0	12339	220	217
0	12359	220	216
0	12371	220	215
0	12383	220	214
0	12394	220	213
0	12406	220	212
0	12417	220	211
0	12429	220	210
0	12440	220	209
0	12452	220	208
0	12463	220	207
0	12475	220	206
0	12486	220	205
0	12498	220	204
0	12509	220	203
0	12521	220	202
0	12532	220	201
0	12544	220	201
0	12555	220	101
0	12567	220	201
0	12578	220	101
0	12586	220	1
0	12660	221	201
0	12686	221	201
0	12712	221	101
0	12731	221	201
0	12752	221	101
0	12760	221	1
0	12900	222	215
0	12932	222	115
0	12953	222	214
0	12978	222	114
0	12998	222	213
0	13017	222	113
0	13029	222	212
0	13041	222	112
0	13053	222	211
0	13065	222	111
0	13077	222	210
0	13089	222	110
0	13101	222	209
0	13113	222	109
0	13125	222	208
0	13137	222	108
0	13149	222	207
0	13161	222	107
0	13173	222	206
0	13185	222	106
0	13197	222	205
0	13209	222	105
0	13221	222	204
0	13233	222	104
0	13245	222	222
0	13257	222	221
0	13269	222	220
0	13281	222	219
0	13293	222	218
0	13305	222	217
0	13317	222	216
0	13329	222	203
0	13341	222	103
0	13353	222	202
0	13365	222	102
0	13377	222	201
0	13389	222	101
0	13401	222	201
0	13413	222	201
0	13425	222	101
0	13437	222	201
0	13449	222	101
0	13457	222	1
0	13510	223	201
0	13536	223	201
0	13549	223	101
0	13558	223	201
0	13565	223	101
0	13571	223	1
0	13577	223	201
0	13583	223	101
0	13633	224	201
0	13659	224	101
0	13673	224	201
0	13682	224	101
0	13689	224	201
0	13695	224	101
0	13737	225	201
0	13754	225	101
0	13765	225	201
0	13771	225	101
0	13777	225	201
0	13783	225	101
0	13809	226	201
0	13822	226	101
0	13831	226	201
0	13838	226	101
0	13861	227	201
0	13873	227	101
0	13882	227	201
0	13889	227	101
0	13912	228	201
0	13924	228	101
0	13933	228	201
0	13940	228	101
0	13964	229	201
0	13976	229	101
0	13985	229	201
0	13992	229	101
0	14016	230	201
0	14029	230	101
0	14038	230	201
0	14045	230	101
0	14068	231	201
0	14079	231	101
0	14088	231	201
0	14095	231	101
0	14117	232	201
0	14130	232	201
0	14139	232	101
0	14161	233	201
0	14174	233	201
0	14183	233	101
0	14205	234	201
0	14219	234	201
0	14228	234	101
0	14278	235	201
0	14286	235	142
0	14300	235	201
0	14306	235	141
0	14315	235	101
0	14321	235	140
0	14329	235	139
0	14335	235	138
0	14341	235	137
0	14347	235	136
0	14353	235	135
0	14359	235	134
0	14365	235	133
0	14371	235	235
0	14377	235	234
0	14383	235	233
0	14389	235	232
0	14395	235	132
0	14401	235	231
0	14407	235	131
0	14413	235	230
0	14419	235	130
0	14425	235	229
0	14431	235	129
0	14437	235	204
0	14443	235	104
0	14449	235	203
0	14455	235	103
0	14461	235	202
0	14467	235	102
0	14473	235	201
0	14479	235	101
0	14500	236	201
0	14508	236	201
0	14524	236	101
0	14533	236	201
0	14540	236	101
0	14560	237	201
0	14568	237	201
0	14584	237	101
0	14593	237	201
0	14600	237	101
0	14621	238	201
0	14635	238	101
0	14644	238	201
0	14651	238	101
0	14671	239	201
0	14685	239	101
0	14694	239	201
0	14701	239	101
0	14723	240	201
0	14737	240	101
0	14746	240	201
0	14753	240	101
0	14774	241	201
0	14788	241	101
0	14797	241	201
0	14804	241	101
0	14824	242	201
0	14838	242	101
0	14847	242	201
0	14854	242	101
0	14889	243	201
0	14895	243	101
0	14901	243	201
0	14907	243	101
0	14948	244	213
0	14959	244	212
0	14970	244	211
0	14981	244	210
0	14992	244	209
0	15003	244	208
0	15014	244	207
0	15025	244	206
0	15036	244	205
0	15047	244	204
0	15058	244	203
0	15069	244	202
0	15080	244	201
0	15087	244	101
0	15123	245	201
0	15133	245	101
0	15263	246	201
0	15291	246	101
0	15316	246	215
0	15344	246	214
0	15369	246	213
0	15397	246	212
0	15422	246	211
0	15450	246	210
0	15475	246	209
0	15503	246	208
0	15528	246	207
0	15556	246	206
0	15581	246	205
0	15609	246	204
0	15634	246	203
0	15662	246	103
0	15687	246	202
0	15715	246	102
0	15740	246	201
0	15764	246	101
0	16761	247	201
0	16785	247	101
0	16804	247	201
0	16824	247	101
0	16834	247	224
0	16843	247	124
0	16850	247	24
0	16856	247	223
0	16862	247	123
0	16868	247	23
0	16874	247	222
0	16880	247	122
0	16886	247	22
0	16892	247	221
0	16898	247	121
0	16904	247	21
0	16910	247	220
0	16916	247	120
0	16922	247	20
0	16928	247	219
0	16934	247	119
0	16940	247	19
0	16946	247	218
0	16952	247	118
0	16958	247	18
0	16964	247	217
0	16970	247	117
0	16976	247	17
0	16982	247	216
0	16988	247	116
0	16994	247	16
0	17000	247	215
0	17006	247	115
0	17012	247	15
0	17018	247	214
0	17024	247	114
0	17030	247	14
0	17036	247	213
0	17042	247	113
0	17048	247	13
0	17054	247	212
0	17060	247	112
0	17066	247	12
0	17072	247	211
0	17078	247	111
0	17084	247	11
0	17090	247	210
0	17096	247	110
0	17102	247	10
0	17108	247	209
0	17114	247	109
0	17120	247	9
0	17126	247	208
0	17132	247	108
0	17138	247	8
0	17144	247	207
0	17150	247	107
0	17156	247	7
0	17162	247	206
0	17168	247	106
0	17174	247	6
0	17180	247	205
0	17186	247	105
0	17192	247	5
0	17198	247	204
0	17204	247	104
0	17210	247	4
0	17216	247	203
0	17222	247	103
0	17228	247	3
0	17234	247	202
0	17240	247	102
0	17246	247	2
0	17252	247	201
0	17258	247	101
0	17264	247	1
0	17304	248	201
0	17328	248	101
0	17348	248	201
0	17367	248	101
0	17377	248	201
0	17386	248	101
0	17393	248	1
0	17429	249	201
0	17453	249	101
0	17472	249	201
0	17492	249	101
0	17502	249	201
0	17511	249	101
0	17518	249	1
0	17555	250	201
0	17580	250	101
0	17599	250	201
0	17619	250	101
0	17629	250	201
0	17638	250	101
0	17645	250	1
0	17680	251	201
0	17694	251	101
0	17708	251	201
0	17722	251	101
0	17732	251	201
0	17741	251	101
0	17748	251	1
0	17786	252	201
0	17800	252	101
0	17814	252	201
0	17824	252	101
0	17833	252	201
0	17842	252	101
0	17849	252	1
0	17889	253	201
0	17904	253	101
0	17918	253	201
0	17928	253	101
0	17937	253	201
0	17946	253	101
0	17953	253	1
0	17992	254	201
0	18007	254	101
0	18021	254	201
0	18031	254	101
0	18040	254	201
0	18049	254	101
0	18056	254	1
0	18094	255	201
0	18110	255	101
0	18124	255	201
0	18134	255	101
0	18143	255	201
0	18152	255	101
0	18159	255	1
0	18199	256	201
0	18216	256	101
0	18231	256	201
0	18241	256	101
0	18250	256	201
0	18259	256	101
0	18266	256	1
0	18304	257	201
0	18321	257	101
0	18336	257	201
0	18346	257	101
0	18355	257	201
0	18364	257	101
0	18371	257	1
0	18409	258	201
0	18426	258	101
0	18441	258	201
0	18451	258	101
0	18460	258	201
0	18469	258	101
0	18476	258	1
0	18514	259	201
0	18531	259	101
0	18546	259	201
0	18556	259	101
0	18565	259	201
0	18574	259	101
0	18581	259	1
0	18621	260	201
0	18640	260	101
0	18655	260	201
0	18665	260	101
0	18674	260	201
0	18683	260	101
0	18690	260	1
0	18730	261	201
0	18747	261	101
0	18762	261	201
0	18772	261	101
0	18781	261	201
0	18790	261	101
0	18797	261	1
0	18838	262	201
0	18856	262	101
0	18871	262	201
0	18881	262	101
0	18890	262	201
0	18899	262	101
0	18906	262	1
0	18945	263	201
0	18957	263	220
0	18968	263	101
0	18984	263	201
0	18994	263	101
0	19003	263	201
0	19012	263	101
0	19019	263	1
0	19057	264	201
0	19073	264	101
0	19087	264	201
0	19097	264	101
0	19106	264	201
0	19115	264	101
0	19122	264	1
0	19161	265	201
0	19174	265	201
0	19185	265	101
0	19194	265	101
0	19210	265	201
0	19220	265	101
0	19229	265	1
0	19266	266	201
0	19279	266	201
0	19294	266	101
0	19309	266	201
0	19319	266	101
0	19328	266	1
0	19364	267	201
0	19378	267	201
0	19393	267	101
0	19408	267	201
0	19418	267	101
0	19427	267	1
0	19464	268	201
0	19478	268	101
0	19493	268	201
0	19503	268	101
0	19512	268	1
0	19545	269	202
0	19564	269	201
0	19579	269	101
0	19589	269	201
0	19598	269	101
0	19607	269	1
0	19645	270	201
0	19663	270	101
0	19678	270	201
0	19688	270	101
0	19697	270	1
0	19735	271	201
0	19753	271	101
0	19768	271	201
0	19778	271	101
0	19787	271	1
0	19830	272	201
0	19848	272	101
0	19864	272	201
0	19874	272	101
0	19883	272	1
0	19928	273	201
0	19947	273	101
0	19965	273	201
0	19975	273	101
0	19984	273	1
0	20027	274	201
0	20047	274	101
0	20064	274	201
0	20074	274	101
0	20083	274	1
0	20162	275	210
0	20171	275	201
0	20189	275	110
0	20195	275	101
0	20212	275	209
0	20218	275	201
0	20228	275	109
0	20234	275	101
0	20243	275	208
0	20249	275	1
0	20256	275	108
0	20263	275	207
0	20269	275	107
0	20275	275	206
0	20281	275	106
0	20287	275	205
0	20293	275	105
0	20299	275	204
0	20305	275	104
0	20311	275	203
0	20317	275	103
0	20323	275	202
0	20329	275	102
0	20335	275	201
0	20341	275	101
0	20377	276	201
0	20393	276	201
0	20407	276	201
0	20416	276	101
0	20430	276	101
0	20441	276	201
0	20450	276	101
0	20459	276	1
0	20496	277	201
0	20512	277	201
0	20526	277	201
0	20535	277	101
0	20549	277	101
0	20560	277	201
0	20569	277	101
0	20578	277	1
0	20621	278	201
0	20637	278	201
0	20657	278	201
0	20666	278	101
0	20684	278	101
0	20696	278	201
0	20705	278	101
0	20714	278	1
0	20757	279	201
0	20774	279	201
0	20793	279	201
0	20802	279	101
0	20820	279	101
0	20829	279	201
0	20837	279	201
0	20846	279	101
0	20852	279	101
0	20862	279	1
0	20905	280	201
0	20922	280	201
0	20942	280	201
0	20951	280	101
0	20969	280	101
0	20978	280	201
0	20986	280	201
0	20995	280	101
0	21001	280	101
0	21011	280	1
0	21055	281	201
0	21070	281	201
0	21090	281	201
0	21099	281	101
0	21117	281	101
0	21126	281	201
0	21134	281	201
0	21143	281	101
0	21149	281	101
0	21159	281	1
0	21205	282	201
0	21219	282	201
0	21239	282	201
0	21248	282	101
0	21265	282	101
0	21274	282	201
0	21282	282	201
0	21291	282	101
0	21297	282	101
0	21307	282	1
0	21351	283	201
0	21365	283	201
0	21384	283	201
0	21393	283	101
0	21410	283	101
0	21419	283	201
0	21427	283	201
0	21436	283	101
0	21442	283	101
0	21452	283	1
0	21496	284	201
0	21510	284	201
0	21530	284	201
0	21539	284	101
0	21556	284	101
0	21565	284	201
0	21573	284	201
0	21582	284	101
0	21588	284	101
0	21598	284	1
0	21642	285	201
0	21656	285	201
0	21677	285	201
0	21686	285	101
0	21703	285	101
0	21712	285	201
0	21720	285	201
0	21729	285	101
0	21735	285	101
0	21745	285	1
0	21811	286	201
0	21840	286	101
0	21862	286	201
0	21880	286	101
0	21896	286	201
0	21910	286	101
0	21926	286	201
0	21934	286	101
0	21940	286	1
0	22004	287	201
0	22033	287	101
0	22051	287	201
0	22064	287	201
0	22073	287	101
0	22082	287	101
0	22091	287	1
0	22098	287	201
0	22104	287	101
0	22168	288	201
0	22197	288	101
0	22215	288	201
0	22228	288	201
0	22237	288	101
0	22246	288	101
0	22255	288	1
0	22262	288	201
0	22268	288	101
0	22331	289	201
0	22359	289	101
0	22377	289	201
0	22389	289	201
0	22398	289	101
0	22407	289	101
0	22416	289	1
0	22423	289	201
0	22429	289	101
0	22489	290	201
0	22510	290	101
0	22525	290	201
0	22537	290	101
0	22546	290	201
0	22555	290	201
0	22564	290	101
0	22571	290	101
0	22577	290	1
0	22623	291	201
0	22647	291	101
0	22667	291	201
0	22679	291	101
0	22688	291	201
0	22697	291	201
0	22706	291	101
0	22715	291	101
0	22722	291	1
0	22770	292	201
0	22795	292	101
0	22815	292	201
0	22827	292	101
0	22836	292	201
0	22845	292	201
0	22854	292	101
0	22863	292	101
0	22870	292	1
0	22904	293	201
0	22923	293	101
0	22935	293	201
0	22942	293	101
0	22948	293	201
0	22954	293	201
0	22960	293	101
0	22966	293	101
0	22972	293	1
0	22995	294	201
0	23014	294	201
0	23023	294	1
0	23044	295	201
0	23062	295	201
0	23071	295	1
0	23091	296	201
0	23109	296	201
0	23118	296	1
0	23174	297	201
0	23202	297	201
0	23221	297	1
0	23494	298	201
0	23521	298	205
0	23541	298	105
0	23553	298	204
0	23562	298	104
0	23571	298	203
0	23580	298	103
0	23587	298	202
0	23593	298	102
0	23599	298	101
0	23605	298	201
0	23611	298	205
0	23617	298	105
0	23623	298	204
0	23629	298	104
0	23635	298	203
0	23641	298	103
0	23647	298	202
0	23653	298	102
0	23659	298	101
0	23665	298	205
0	23671	298	205
0	23677	298	105
0	23683	298	105
0	23689	298	204
0	23695	298	204
0	23701	298	104
0	23707	298	104
0	23713	298	203
0	23719	298	203
0	23725	298	103
0	23731	298	103
0	23737	298	202
0	23743	298	202
0	23749	298	102
0	23755	298	102
0	23761	298	201
0	23767	298	201
0	23773	298	101
0	23779	298	101
0	23785	298	1
0	23831	299	201
0	23856	299	101
0	23875	299	201
0	23886	299	101
0	23895	299	201
0	23904	299	201
0	23913	299	101
0	23920	299	101
0	23926	299	1
0	23971	300	201
0	23996	300	101
0	24015	300	201
0	24026	300	101
0	24035	300	201
0	24044	300	201
0	24053	300	101
0	24060	300	101
0	24066	300	1
0	24109	301	201
0	24134	301	101
0	24153	301	201
0	24164	301	101
0	24173	301	201
0	24182	301	201
0	24191	301	101
0	24198	301	101
0	24204	301	1
0	24240	302	201
0	24265	302	101
0	24284	302	201
0	24295	302	101
0	24304	302	201
0	24313	302	201
0	24320	302	101
0	24326	302	101
0	24332	302	1
0	24380	303	201
0	24405	303	101
0	24424	303	201
0	24443	303	201
0	24462	303	101
0	24481	303	101
0	24500	303	1
0	24615	304	202
0	24640	304	304
0	24659	304	303
0	24678	304	302
0	24689	304	301
0	24698	304	201
0	24707	304	101
0	24716	304	202
0	24725	304	304
0	24732	304	303
0	24738	304	302
0	24744	304	301
0	24750	304	201
0	24756	304	304
0	24762	304	304
0	24768	304	303
0	24774	304	303
0	24780	304	302
0	24786	304	302
0	24792	304	301
0	24798	304	301
0	24804	304	201
0	24810	304	201
0	24816	304	101
0	24822	304	101
0	24828	304	1
0	24875	305	301
0	24895	305	201
0	24909	305	101
0	24923	305	301
0	24933	305	201
0	24942	305	301
0	24949	305	301
0	24955	305	201
0	24961	305	201
0	24967	305	101
0	24973	305	101
0	24979	305	1
0	25021	306	301
0	25043	306	201
0	25057	306	101
0	25071	306	301
0	25081	306	201
0	25090	306	101
0	25097	306	301
0	25103	306	201
0	25109	306	101
0	25159	307	301
0	25174	307	201
0	25188	307	101
0	25198	307	301
0	25207	307	201
0	25216	307	101
0	25225	307	301
0	25232	307	201
0	25238	307	101
0	25290	308	301
0	25306	308	201
0	25320	308	101
0	25330	308	301
0	25339	308	201
0	25348	308	101
0	25357	308	301
0	25364	308	201
0	25370	308	101
0	25421	309	301
0	25436	309	201
0	25450	309	101
0	25460	309	301
0	25469	309	201
0	25478	309	101
0	25487	309	301
0	25494	309	201
0	25500	309	101
0	25564	310	301
0	25584	310	201
0	25604	310	101
0	25619	310	301
0	25634	310	201
0	25648	310	101
0	25661	310	301
0	25672	310	201
0	25684	310	101
0	25691	310	301
0	25697	310	201
0	25703	310	101
0	25766	311	301
0	25791	311	201
0	25820	311	101
0	25844	311	301
0	25873	311	201
0	25897	311	101
0	25926	311	301
0	25950	311	201
0	25979	311	101
0	25999	311	301
0	26022	311	201
0	26041	311	101
0	26437	312	301
0	26464	312	201
0	26490	312	101
0	26505	312	301
0	26521	312	201
0	26533	312	101
0	26546	312	301
0	26557	312	201
0	26570	312	101
0	26581	312	301
0	26594	312	201
0	26605	312	101
0	26618	312	307
0	26629	312	207
0	26642	312	107
0	26653	312	7
0	26666	312	306
0	26677	312	206
0	26690	312	106
0	26701	312	6
0	26714	312	305
0	26725	312	205
0	26738	312	105
0	26749	312	5
0	26762	312	304
0	26773	312	204
0	26786	312	104
0	26797	312	4
0	26810	312	303
0	26821	312	203
0	26834	312	103
0	26845	312	3
0	26858	312	302
0	26869	312	202
0	26882	312	102
0	26893	312	2
0	26906	312	301
0	26913	312	201
0	26919	312	101
0	26925	312	1
0	26969	313	101
0	26997	313	101
0	27024	313	101
0	27039	313	101
0	27055	313	101
0	27063	313	1
0	27136	314	101
0	27157	314	101
0	27182	314	101
0	27201	314	101
0	27226	314	101
0	27241	314	1
0	27385	315	303
0	27406	315	203
0	27431	315	302
0	27450	315	202
0	27471	315	301
0	27485	315	201
0	27501	315	101
0	27509	315	303
0	27515	315	203
0	27521	315	302
0	27527	315	202
0	27533	315	301
0	27539	315	201
0	27545	315	101
0	27551	315	303
0	27557	315	203
0	27563	315	302
0	27569	315	202
0	27575	315	301
0	27581	315	201
0	27587	315	101
0	27593	315	1
0	27599	315	303
0	27605	315	203
0	27611	315	302
0	27617	315	202
0	27623	315	301
0	27629	315	201
0	27635	315	101
0	27702	316	301
0	27723	316	201
0	27747	316	101
0	27762	316	301
0	27775	316	201
0	27784	316	101
0	27793	316	301
0	27800	316	201
0	27806	316	101
0	27812	316	1
0	27818	316	301
0	27824	316	201
0	27830	316	101
0	27894	317	301
0	27916	317	201
0	27940	317	101
0	27955	317	301
0	27968	317	201
0	27977	317	101
0	27986	317	301
0	27993	317	201
0	27999	317	101
0	28005	317	1
0	28011	317	301
0	28017	317	201
0	28023	317	101
0	28087	318	301
0	28108	318	201
0	28131	318	101
0	28146	318	301
0	28158	318	201
0	28167	318	101
0	28176	318	301
0	28183	318	201
0	28189	318	101
0	28195	318	1
0	28201	318	301
0	28207	318	201
0	28213	318	101
0	28297	319	301
0	28319	319	201
0	28342	319	101
0	28361	319	301
0	28380	319	201
0	28394	319	101
0	28410	319	301
0	28422	319	201
0	28435	319	101
0	28446	319	301
0	28455	319	201
0	28461	319	101
0	28467	319	1
0	28573	320	320
0	28595	320	319
0	28618	320	318
0	28637	320	317
0	28656	320	316
0	28670	320	315
0	28686	320	314
0	28698	320	313
0	28711	320	312
0	28722	320	311
0	28735	320	310
0	28746	320	309
0	28759	320	308
0	28770	320	307
0	28783	320	306
0	28794	320	305
0	28807	320	304
0	28818	320	303
0	28831	320	302
0	28842	320	301
0	28855	320	201
0	28866	320	101
0	28879	320	320
0	28890	320	319
0	28903	320	318
0	28914	320	317
0	28927	320	316
0	28938	320	315
0	28951	320	314
0	28958	320	313
0	28964	320	312
0	28970	320	311
0	28976	320	310
0	28982	320	309
0	28988	320	308
0	28994	320	307
0	29000	320	306
0	29006	320	305
0	29012	320	304
0	29018	320	303
0	29024	320	302
0	29030	320	301
0	29036	320	201
0	29042	320	101
0	29048	320	301
0	29054	320	201
0	29060	320	101
0	29066	320	301
0	29072	320	201
0	29078	320	101
0	29084	320	1
0	29152	321	301
0	29173	321	201
0	29196	321	101
0	29215	321	301
0	29234	321	201
0	29248	321	101
0	29264	321	301
0	29276	321	201
0	29289	321	101
0	29300	321	301
0	29309	321	201
0	29315	321	101
0	29321	321	1
0	29463	322	315
0	29484	322	215
0	29507	322	314
0	29526	322	214
0	29545	322	313
0	29559	322	213
0	29575	322	312
0	29587	322	212
0	29600	322	311
0	29611	322	211
0	29624	322	310
0	29635	322	210
0	29648	322	309
0	29659	322	209
0	29672	322	308
0	29683	322	208
0	29696	322	307
0	29707	322	207
0	29720	322	306
0	29731	322	206
0	29744	322	305
0	29755	322	205
0	29768	322	304
0	29779	322	204
0	29792	322	322
0	29803	322	321
0	29816	322	320
0	29827	322	319
0	29840	322	318
0	29851	322	317
0	29864	322	316
0	29875	322	303
0	29888	322	203
0	29899	322	302
0	29912	322	202
0	29923	322	301
0	29936	322	201
0	29947	322	101
0	29960	322	315
0	29971	322	215
0	29984	322	314
0	29995	322	214
0	30008	322	313
0	30019	322	213
0	30032	322	312
0	30039	322	212
0	30045	322	311
0	30051	322	211
0	30057	322	310
0	30063	322	210
0	30069	322	309
0	30075	322	209
0	30081	322	308
0	30087	322	208
0	30093	322	307
0	30099	322	207
0	30105	322	306
0	30111	322	206
0	30117	322	305
0	30123	322	205
0	30129	322	304
0	30135	322	204
0	30141	322	322
0	30147	322	321
0	30153	322	320
0	30159	322	319
0	30165	322	318
0	30171	322	317
0	30177	322	316
0	30183	322	303
0	30189	322	203
0	30195	322	302
0	30201	322	202
0	30207	322	301
0	30213	322	201
0	30219	322	101
0	30225	322	301
0	30231	322	201
0	30237	322	101
0	30243	322	301
0	30249	322	201
0	30255	322	101
0	30261	322	1
0	30311	323	301
0	30335	323	201
0	30353	323	101
0	30365	323	301
0	30378	323	201
0	30389	323	301
0	30402	323	201
0	30413	323	101
0	30426	323	301
0	30433	323	201
0	30439	323	101
0	30445	323	1
0	30484	324	301
0	30508	324	201
0	30526	324	301
0	30538	324	201
0	30551	324	301
0	30558	324	201
0	30564	324	1
0	30595	325	301
0	30616	325	201
0	30634	325	301
0	30646	325	201
0	30659	325	301
0	30666	325	201
0	30672	325	1
0	30712	326	301
0	30731	326	201
0	30741	326	1
0	30778	327	301
0	30797	327	201
0	30807	327	1
0	30845	328	301
0	30863	328	201
0	30873	328	1
0	30917	329	301
0	30937	329	201
0	30949	329	1
0	31262	330	318
0	31282	330	218
0	31296	330	317
0	31303	330	217
0	31309	330	316
0	31315	330	216
0	31321	330	116
0	31327	330	315
0	31333	330	215
0	31339	330	115
0	31345	330	314
0	31351	330	214
0	31357	330	114
0	31363	330	313
0	31369	330	213
0	31375	330	113
0	31381	330	312
0	31387	330	212
0	31393	330	112
0	31399	330	330
0	31405	330	329
0	31411	330	328
0	31417	330	327
0	31423	330	326
0	31429	330	325
0	31435	330	324
0	31441	330	323
0	31447	330	322
0	31453	330	321
0	31459	330	320
0	31465	330	319
0	31471	330	311
0	31477	330	211
0	31483	330	111
0	31489	330	310
0	31495	330	210
0	31501	330	110
0	31507	330	309
0	31513	330	209
0	31519	330	109
0	31525	330	308
0	31531	330	208
0	31537	330	108
0	31543	330	307
0	31549	330	207
0	31555	330	306
0	31561	330	206
0	31567	330	305
0	31573	330	205
0	31579	330	304
0	31585	330	204
0	31591	330	303
0	31597	330	203
0	31603	330	302
0	31609	330	202
0	31615	330	301
0	31621	330	201
0	31627	330	301
0	31633	330	201
0	31639	330	1
0	31683	331	301
0	31705	331	201
0	31721	331	301
0	31731	331	201
0	31738	331	1
0	31779	332	301
0	31801	332	1
0	31814	332	201
0	31823	332	301
0	31830	332	201
0	31872	333	301
0	31894	333	1
0	31906	333	201
0	31915	333	301
0	31922	333	201
0	31962	334	301
0	31984	334	1
0	31996	334	201
0	32005	334	301
0	32012	334	201
0	32067	335	242
0	32093	335	241
0	32111	335	240
0	32121	335	239
0	32130	335	238
0	32137	335	237
0	32143	335	236
0	32149	335	235
0	32155	335	234
0	32161	335	233
0	32167	335	335
0	32173	335	334
0	32179	335	333
0	32185	335	332
0	32191	335	232
0	32197	335	331
0	32203	335	231
0	32209	335	330
0	32215	335	230
0	32221	335	329
0	32227	335	229
0	32233	335	304
0	32239	335	204
0	32245	335	303
0	32251	335	203
0	32257	335	302
0	32263	335	202
0	32269	335	301
0	32275	335	201
0	32281	335	301
0	32287	335	1
0	32293	335	201
0	32299	335	301
0	32305	335	201
0	32334	336	301
0	32354	336	201
0	32370	336	301
0	32380	336	1
0	32389	336	201
0	32396	336	301
0	32423	337	301
0	32443	337	201
0	32459	337	301
0	32469	337	1
0	32478	337	201
0	32485	337	301
0	32506	338	301
0	32525	338	201
0	32541	338	301
0	32551	338	1
0	32560	338	201
0	32583	339	301
0	32601	339	201
0	32617	339	301
0	32627	339	1
0	32636	339	201
0	32659	340	301
0	32678	340	201
0	32694	340	301
0	32704	340	1
0	32713	340	201
0	32735	341	301
0	32754	341	201
0	32770	341	301
0	32780	341	1
0	32789	341	201
0	32812	342	301
0	32830	342	201
0	32846	342	301
0	32856	342	1
0	32865	342	201
0	32886	343	301
0	32899	343	201
0	32910	343	301
0	32917	343	1
0	32923	343	201
0	32969	344	313
0	32987	344	312
0	33004	344	311
0	33016	344	310
0	33027	344	309
0	33038	344	308
0	33049	344	307
0	33060	344	306
0	33071	344	305
0	33082	344	304
0	33093	344	303
0	33104	344	302
0	33115	344	301
0	33126	344	201
0	33137	344	313
0	33144	344	312
0	33150	344	311
0	33156	344	310
0	33162	344	309
0	33168	344	308
0	33174	344	307
0	33180	344	306
0	33186	344	305
0	33192	344	304
0	33198	344	303
0	33204	344	302
0	33210	344	301
0	33216	344	201
0	33222	344	1
0	33266	345	301
0	33286	345	201
0	33303	345	301
0	33313	345	201
0	33322	345	1
0	33688	346	301
0	33715	346	201
0	33739	346	315
0	33764	346	314
0	33789	346	313
0	33813	346	312
0	33838	346	311
0	33863	346	310
0	33887	346	309
0	33912	346	308
0	33937	346	307
0	33961	346	306
0	33986	346	305
0	34011	346	304
0	34035	346	303
0	34060	346	203
0	34085	346	302
0	34109	346	202
0	34134	346	301
0	34159	346	201
0	34183	346	315
0	34208	346	314
0	34233	346	313
0	34257	346	312
0	34282	346	311
0	34307	346	310
0	34331	346	309
0	34356	346	308
0	34381	346	307
0	34405	346	306
0	34430	346	305
0	34455	346	304
0	34479	346	303
0	34504	346	203
0	34529	346	302
0	34553	346	202
0	34578	346	315
0	34599	346	314
0	34618	346	313
0	34638	346	312
0	34658	346	311
0	34677	346	310
0	34697	346	309
0	34717	346	308
0	34736	346	307
0	34756	346	306
0	34776	346	305
0	34795	346	304
0	34815	346	303
0	34835	346	203
0	34854	346	302
0	34874	346	202
0	34894	346	301
0	34913	346	201
0	34933	346	1
0	36153	347	301
0	36174	347	201
0	36194	347	324
0	36214	347	224
0	36225	347	124
0	36234	347	323
0	36243	347	223
0	36252	347	123
0	36261	347	322
0	36270	347	222
0	36279	347	122
0	36286	347	321
0	36292	347	221
0	36298	347	121
0	36304	347	320
0	36310	347	220
0	36316	347	120
0	36322	347	319
0	36328	347	219
0	36334	347	119
0	36340	347	318
0	36346	347	218
0	36352	347	118
0	36358	347	317
0	36364	347	217
0	36370	347	117
0	36376	347	316
0	36382	347	216
0	36388	347	116
0	36394	347	315
0	36400	347	215
0	36406	347	115
0	36412	347	314
0	36418	347	214
0	36424	347	114
0	36430	347	313
0	36436	347	213
0	36442	347	113
0	36448	347	312
0	36454	347	212
0	36460	347	112
0	36466	347	311
0	36472	347	211
0	36478	347	111
0	36484	347	310
0	36490	347	210
0	36496	347	110
0	36502	347	309
0	36508	347	209
0	36514	347	109
0	36520	347	308
0	36526	347	208
0	36532	347	108
0	36538	347	307
0	36544	347	207
0	36550	347	107
0	36556	347	306
0	36562	347	206
0	36568	347	106
0	36574	347	305
0	36580	347	205
0	36586	347	105
0	36592	347	304
0	36598	347	204
0	36604	347	104
0	36610	347	303
0	36616	347	203
0	36622	347	103
0	36628	347	302
0	36634	347	202
0	36640	347	102
0	36646	347	101
0	36652	347	301
0	36658	347	201
0	36664	347	324
0	36670	347	224
0	36676	347	124
0	36682	347	323
0	36688	347	223
0	36694	347	123
0	36700	347	322
0	36706	347	222
0	36712	347	122
0	36718	347	321
0	36724	347	221
0	36730	347	121
0	36736	347	320
0	36742	347	220
0	36748	347	120
0	36754	347	319
0	36760	347	219
0	36766	347	119
0	36772	347	318
0	36778	347	218
0	36784	347	118
0	36790	347	317
0	36796	347	217
0	36802	347	117
0	36808	347	316
0	36814	347	216
0	36820	347	116
0	36826	347	315
0	36832	347	215
0	36838	347	115
0	36844	347	314
0	36850	347	214
0	36856	347	114
0	36862	347	313
0	36868	347	213
0	36874	347	113
0	36880	347	312
0	36886	347	212
0	36892	347	112
0	36898	347	311
0	36904	347	211
0	36910	347	111
0	36916	347	310
0	36922	347	210
0	36928	347	110
0	36934	347	309
0	36940	347	209
0	36946	347	109
0	36952	347	308
0	36958	347	208
0	36964	347	108
0	36970	347	307
0	36976	347	207
0	36982	347	107
0	36988	347	306
0	36994	347	206
0	37000	347	106
0	37006	347	305
0	37012	347	205
0	37018	347	105
0	37024	347	304
0	37030	347	204
0	37036	347	104
0	37042	347	303
0	37048	347	203
0	37054	347	103
0	37060	347	302
0	37066	347	202
0	37072	347	102
0	37078	347	101
0	37084	347	324
0	37090	347	324
0	37096	347	224
0	37102	347	224
0	37108	347	124
0	37114	347	124
0	37120	347	323
0	37126	347	323
0	37132	347	223
0	37138	347	223
0	37144	347	123
0	37150	347	123
0	37156	347	322
0	37162	347	322
0	37168	347	222
0	37174	347	222
0	37180	347	122
0	37186	347	122
0	37192	347	321
0	37198	347	321
0	37204	347	221
0	37210	347	221
0	37216	347	121
0	37222	347	121
0	37228	347	320
0	37234	347	320
0	37240	347	220
0	37246	347	220
0	37252	347	120
0	37258	347	120
0	37264	347	319
0	37270	347	319
0	37276	347	219
0	37282	347	219
0	37288	347	119
0	37294	347	119
0	37300	347	318
0	37306	347	318
0	37312	347	218
0	37318	347	218
0	37324	347	118
0	37330	347	118
0	37336	347	317
0	37342	347	317
0	37348	347	217
0	37354	347	217
0	37360	347	117
0	37366	347	117
0	37372	347	316
0	37378	347	316
0	37384	347	216
0	37390	347	216
0	37396	347	116
0	37402	347	116
0	37408	347	315
0	37414	347	315
0	37420	347	215
0	37426	347	215
0	37432	347	115
0	37438	347	115
0	37444	347	314
0	37450	347	314
0	37456	347	214
0	37462	347	214
0	37468	347	114
0	37474	347	114
0	37480	347	313
0	37486	347	313
0	37492	347	213
0	37498	347	213
0	37504	347	113
0	37510	347	113
0	37516	347	312
0	37522	347	312
0	37528	347	212
0	37534	347	212
0	37540	347	112
0	37546	347	112
0	37552	347	311
0	37558	347	311
0	37564	347	211
0	37570	347	211
0	37576	347	111
0	37582	347	111
0	37588	347	310
0	37594	347	310
0	37600	347	210
0	37606	347	210
0	37612	347	110
0	37618	347	110
0	37624	347	309
0	37630	347	309
0	37636	347	209
0	37642	347	209
0	37648	347	109
0	37654	347	109
0	37660	347	308
0	37666	347	308
0	37672	347	208
0	37678	347	208
0	37684	347	108
0	37690	347	108
0	37696	347	307
0	37702	347	307
0	37708	347	207
0	37714	347	207
0	37720	347	107
0	37726	347	107
0	37732	347	306
0	37738	347	306
0	37744	347	206
0	37750	347	206
0	37756	347	106
0	37762	347	106
0	37768	347	305
0	37774	347	305
0	37780	347	205
0	37786	347	205
0	37792	347	105
0	37798	347	105
0	37804	347	304
0	37810	347	304
0	37816	347	204
0	37822	347	204
0	37828	347	104
0	37834	347	104
0	37840	347	303
0	37846	347	303
0	37852	347	203
0	37858	347	203
0	37864	347	103
0	37870	347	103
0	37876	347	302
0	37882	347	302
0	37888	347	202
0	37894	347	202
0	37900	347	102
0	37906	347	102
0	37912	347	301
0	37918	347	301
0	37924	347	201
0	37930	347	201
0	37936	347	101
0	37942	347	101
0	37948	347	1
0	38003	348	301
0	38025	348	201
0	38045	348	101
0	38065	348	301
0	38076	348	201
0	38085	348	101
0	38094	348	301
0	38103	348	301
0	38112	348	201
0	38121	348	201
0	38130	348	101
0	38137	348	101
0	38143	348	1
0	38199	349	301
0	38215	349	201
0	38230	349	101
0	38244	349	301
0	38255	349	201
0	38264	349	101
0	38273	349	301
0	38282	349	301
0	38289	349	201
0	38295	349	201
0	38301	349	101
0	38307	349	101
0	38313	349	1
0	38363	350	301
0	38379	350	201
0	38394	350	101
0	38408	350	301
0	38419	350	201
0	38428	350	101
0	38437	350	301
0	38446	350	201
0	38453	350	101
0	38459	350	1
0	38498	351	301
0	38517	351	201
0	38532	351	101
0	38547	351	301
0	38562	351	201
0	38573	351	101
0	38582	351	301
0	38591	351	201
0	38598	351	101
0	38604	351	1
0	38651	352	301
0	38671	352	201
0	38690	352	101
0	38707	352	301
0	38722	352	201
0	38734	352	101
0	38746	352	301
0	38756	352	201
0	38763	352	101
0	38769	352	1
0	38827	353	301
0	38845	353	201
0	38861	353	101
0	38875	353	301
0	38887	353	201
0	38896	353	101
0	38905	353	301
0	38914	353	201
0	38921	353	101
0	38927	353	1
0	38974	354	301
0	38986	354	305
0	38997	354	201
0	39006	354	205
0	39019	354	101
0	39028	354	105
0	39039	354	301
0	39048	354	304
0	39057	354	201
0	39066	354	204
0	39072	354	101
0	39081	354	104
0	39087	354	301
0	39097	354	201
0	39104	354	101
0	39110	354	1
0	39155	355	301
0	39172	355	201
0	39188	355	101
0	39202	355	301
0	39214	355	201
0	39223	355	101
0	39232	355	301
0	39241	355	201
0	39248	355	101
0	39254	355	1
0	39299	356	301
0	39316	356	201
0	39332	356	101
0	39346	356	301
0	39358	356	201
0	39367	356	101
0	39376	356	301
0	39385	356	201
0	39392	356	101
0	39398	356	1
0	39444	357	301
0	39462	357	201
0	39478	357	101
0	39492	357	301
0	39504	357	201
0	39513	357	101
0	39522	357	301
0	39531	357	201
0	39538	357	101
0	39544	357	1
0	39590	358	301
0	39608	358	201
0	39624	358	101
0	39638	358	301
0	39650	358	201
0	39659	358	101
0	39668	358	301
0	39677	358	201
0	39684	358	101
0	39690	358	1
0	39736	359	301
0	39754	359	201
0	39770	359	101
0	39784	359	301
0	39796	359	201
0	39805	359	101
0	39814	359	301
0	39823	359	201
0	39830	359	101
0	39836	359	1
0	39883	360	301
0	39901	360	201
0	39917	360	101
0	39931	360	301
0	39943	360	201
0	39952	360	101
0	39961	360	301
0	39970	360	201
0	39977	360	101
0	39983	360	1
0	40030	361	301
0	40048	361	201
0	40064	361	101
0	40078	361	301
0	40090	361	201
0	40099	361	101
0	40108	361	301
0	40117	361	201
0	40124	361	101
0	40130	361	1
0	40177	362	301
0	40193	362	201
0	40208	362	101
0	40222	362	301
0	40233	362	201
0	40242	362	101
0	40251	362	301
0	40260	362	201
0	40267	362	101
0	40273	362	1
0	40321	363	301
0	40332	363	320
0	40344	363	201
0	40360	363	101
0	40374	363	301
0	40385	363	201
0	40394	363	101
0	40403	363	301
0	40412	363	201
0	40419	363	101
0	40425	363	1
0	40472	364	301
0	40490	364	201
0	40505	364	101
0	40519	364	301
0	40530	364	201
0	40539	364	101
0	40548	364	301
0	40557	364	201
0	40564	364	101
0	40570	364	1
0	40616	365	301
0	40628	365	301
0	40640	365	201
0	40649	365	201
0	40661	365	301
0	40670	365	101
0	40681	365	201
0	40693	365	101
0	40702	365	301
0	40711	365	201
0	40720	365	101
0	40727	365	1
0	40783	366	301
0	40802	366	201
0	40822	366	101
0	40841	366	301
0	40857	366	301
0	40871	366	201
0	40885	366	101
0	40897	366	301
0	40904	366	201
0	40910	366	101
0	40916	366	1
0	40971	367	301
0	40990	367	201
0	41009	367	101
0	41028	367	301
0	41043	367	301
0	41057	367	201
0	41071	367	101
0	41083	367	301
0	41090	367	201
0	41096	367	101
0	41102	367	1
0	41146	368	301
0	41171	368	201
0	41190	368	101
0	41213	368	301
0	41228	368	201
0	41240	368	101
0	41251	368	301
0	41262	368	201
0	41269	368	101
0	41275	368	1
0	41320	369	301
0	41343	369	201
0	41362	369	101
0	41385	369	1
0	41396	369	302
0	41403	369	301
0	41409	369	201
0	41415	369	101
0	41459	370	301
0	41482	370	201
0	41501	370	101
0	41520	370	1
0	41530	370	301
0	41537	370	201
0	41543	370	101
0	41587	371	301
0	41610	371	201
0	41629	371	101
0	41648	371	1
0	41658	371	301
0	41665	371	201
0	41671	371	101
0	41714	372	301
0	41737	372	201
0	41756	372	101
0	41775	372	1
0	41785	372	301
0	41792	372	201
0	41798	372	101
0	41843	373	301
0	41866	373	201
0	41885	373	101
0	41904	373	1
0	41914	373	301
0	41921	373	201
0	41927	373	101
0	41976	374	301
0	41998	374	201
0	42018	374	101
0	42036	374	1
0	42047	374	301
0	42054	374	201
0	42060	374	101
0	42118	375	310
0	42143	375	210
0	42162	375	309
0	42185	375	209
0	42196	375	308
0	42203	375	208
0	42209	375	307
0	42215	375	207
0	42221	375	306
0	42227	375	206
0	42233	375	305
0	42239	375	205
0	42245	375	304
0	42251	375	204
0	42257	375	303
0	42263	375	203
0	42269	375	302
0	42275	375	202
0	42281	375	301
0	42287	375	201
0	42293	375	301
0	42299	375	201
0	42305	375	101
0	42311	375	1
0	42317	375	301
0	42323	375	201
0	42329	375	101
0	42373	376	301
0	42391	376	201
0	42405	376	101
0	42462	377	301
0	42480	377	201
0	42494	377	101
0	42511	377	301
0	42521	377	201
0	42528	377	101
0	42534	377	1
0	42579	378	301
0	42597	378	201
0	42613	378	101
0	42627	378	301
0	42639	378	201
0	42648	378	101
0	42657	378	1
0	42709	379	301
0	42727	379	201
0	42744	379	101
0	42758	379	301
0	42771	379	201
0	42780	379	301
0	42789	379	201
0	42796	379	101
0	42802	379	1
0	42851	380	301
0	42869	380	201
0	42886	380	101
0	42900	380	301
0	42913	380	201
0	42922	380	301
0	42931	380	201
0	42938	380	101
0	42944	380	1
0	42994	381	301
0	43013	381	201
0	43031	381	101
0	43045	381	301
0	43059	381	201
0	43068	381	301
0	43077	381	201
0	43084	381	101
0	43090	381	1
0	43141	382	301
0	43161	382	201
0	43178	382	101
0	43192	382	301
0	43205	382	201
0	43214	382	301
0	43223	382	201
0	43230	382	101
0	43236	382	1
0	43286	383	301
0	43306	383	201
0	43322	383	101
0	43336	383	301
0	43348	383	201
0	43357	383	301
0	43366	383	201
0	43373	383	101
0	43379	383	1
0	43428	384	301
0	43447	384	201
0	43463	384	101
0	43477	384	301
0	43489	384	201
0	43498	384	301
0	43507	384	201
0	43514	384	101
0	43520	384	1
0	43569	385	301
0	43589	385	201
0	43605	385	101
0	43619	385	301
0	43631	385	201
0	43640	385	301
0	43649	385	201
0	43656	385	101
0	43662	385	1
0	43719	386	301
0	43738	386	201
0	43754	386	101
0	43768	386	301
0	43780	386	201
0	43789	386	301
0	43798	386	201
0	43805	386	101
0	43811	386	1
0	43864	387	301
0	43886	387	201
0	43905	387	301
0	43922	387	201
0	43937	387	301
0	43949	387	201
0	43961	387	101
0	43971	387	1
0	44305	388	301
0	44329	388	201
0	44349	388	301
0	44366	388	320
0	44380	388	201
0	44389	388	220
0	44398	388	301
0	44405	388	120
0	44411	388	201
0	44417	388	319
0	44423	388	101
0	44429	388	219
0	44435	388	1
0	44441	388	119
0	44447	388	318
0	44453	388	218
0	44459	388	118
0	44465	388	317
0	44471	388	217
0	44477	388	117
0	44483	388	316
0	44489	388	216
0	44495	388	116
0	44501	388	315
0	44507	388	215
0	44513	388	115
0	44519	388	314
0	44525	388	214
0	44531	388	114
0	44537	388	313
0	44543	388	213
0	44549	388	113
0	44555	388	312
0	44561	388	212
0	44567	388	112
0	44573	388	311
0	44579	388	211
0	44585	388	111
0	44591	388	310
0	44597	388	210
0	44603	388	110
0	44609	388	309
0	44615	388	209
0	44621	388	109
0	44627	388	308
0	44633	388	208
0	44639	388	108
0	44645	388	307
0	44651	388	207
0	44657	388	107
0	44663	388	306
0	44669	388	206
0	44675	388	106
0	44681	388	305
0	44687	388	205
0	44693	388	105
0	44699	388	304
0	44705	388	204
0	44711	388	104
0	44717	388	303
0	44723	388	203
0	44729	388	103
0	44735	388	302
0	44741	388	202
0	44747	388	102
0	44753	388	301
0	44759	388	201
0	44765	388	101
0	44823	389	301
0	44847	389	201
0	44867	389	301
0	44884	389	301
0	44898	389	201
0	44907	389	201
0	44916	389	101
0	44923	389	301
0	44929	389	201
0	44935	389	101
0	44941	389	1
0	45009	390	301
0	45029	390	201
0	45050	390	101
0	45065	390	301
0	45079	390	301
0	45088	390	201
0	45095	390	201
0	45101	390	101
0	45107	390	301
0	45113	390	201
0	45119	390	101
0	45125	390	1
0	45183	391	301
0	45204	391	316
0	45215	391	201
0	45227	391	216
0	45242	391	101
0	45254	391	316
0	45265	391	301
0	45275	391	216
0	45286	391	301
0	45295	391	116
0	45301	391	201
0	45310	391	16
0	45316	391	201
0	45323	391	315
0	45329	391	101
0	45335	391	215
0	45341	391	301
0	45347	391	314
0	45353	391	201
0	45359	391	214
0	45365	391	101
0	45371	391	313
0	45377	391	1
0	45383	391	213
0	45390	391	312
0	45396	391	212
0	45402	391	311
0	45408	391	211
0	45414	391	310
0	45420	391	210
0	45426	391	309
0	45432	391	209
0	45438	391	308
0	45444	391	208
0	45450	391	307
0	45456	391	207
0	45462	391	306
0	45468	391	206
0	45474	391	106
0	45480	391	305
0	45486	391	205
0	45492	391	105
0	45498	391	304
0	45504	391	204
0	45510	391	104
0	45516	391	303
0	45522	391	203
0	45528	391	103
0	45585	392	301
0	45612	392	201
0	45633	392	101
0	45650	392	301
0	45665	392	301
0	45674	392	201
0	45683	392	201
0	45690	392	101
0	45696	392	301
0	45702	392	201
0	45708	392	101
0	45714	392	1
0	45754	393	301
0	45777	393	201
0	45797	393	101
0	45808	393	301
0	45815	393	301
0	45821	393	201
0	45827	393	201
0	45833	393	101
0	45839	393	301
0	45845	393	201
0	45851	393	101
0	45857	393	1
0	45887	394	301
0	45905	394	101
0	45914	394	101
0	45927	394	1
0	45936	394	301
0	45948	394	101
0	45978	395	301
0	45998	395	101
0	46015	395	301
0	46025	395	101
0	46032	395	101
0	46038	395	1
0	46069	396	301
0	46088	396	101
0	46104	396	301
0	46114	396	101
0	46121	396	101
0	46127	396	1
0	46212	397	301
0	46235	397	101
0	46252	397	301
0	46271	397	101
0	46288	397	101
0	46307	397	1
0	46553	398	301
0	46567	398	305
0	46581	398	305
0	46590	398	205
0	46606	398	205
0	46613	398	304
0	46627	398	304
0	46633	398	204
0	46645	398	204
0	46651	398	303
0	46660	398	303
0	46666	398	203
0	46675	398	203
0	46681	398	302
0	46688	398	302
0	46694	398	202
0	46700	398	202
0	46706	398	301
0	46712	398	201
0	46718	398	201
0	46724	398	101
0	46731	398	301
0	46737	398	305
0	46743	398	205
0	46749	398	304
0	46755	398	204
0	46761	398	303
0	46767	398	203
0	46773	398	302
0	46779	398	202
0	46785	398	201
0	46791	398	101
0	46797	398	305
0	46803	398	205
0	46809	398	304
0	46815	398	204
0	46821	398	303
0	46827	398	203
0	46833	398	302
0	46839	398	202
0	46845	398	301
0	46851	398	201
0	46857	398	101
0	46863	398	1
0	46924	399	301
0	46938	399	301
0	46953	399	201
0	46962	399	201
0	46978	399	101
0	46994	399	301
0	47006	399	201
0	47015	399	101
0	47024	399	301
0	47031	399	201
0	47037	399	101
0	47043	399	1
0	47104	400	301
0	47116	400	301
0	47132	400	201
0	47141	400	201
0	47157	400	101
0	47173	400	301
0	47185	400	201
0	47194	400	101
0	47203	400	301
0	47210	400	201
0	47216	400	101
0	47222	400	1
0	47282	401	301
0	47295	401	301
0	47311	401	201
0	47320	401	201
0	47336	401	101
0	47352	401	301
0	47364	401	201
0	47373	401	101
0	47382	401	301
0	47389	401	201
0	47395	401	101
0	47401	401	1
0	47453	402	301
0	47470	402	301
0	47483	402	201
0	47495	402	201
0	47508	402	101
0	47524	402	301
0	47536	402	201
0	47545	402	101
0	47554	402	301
0	47563	402	201
0	47570	402	101
0	47576	402	1
0	47653	403	301
0	47665	403	301
0	47681	403	201
0	47690	403	201
0	47705	403	101
0	47723	403	301
0	47741	403	201
0	47758	403	101
0	47776	403	301
0	47791	403	201
0	47802	403	101
0	47811	403	1
0	47937	404	302
0	47949	404	404
0	47965	404	404
0	47974	404	403
0	47989	404	403
0	47998	404	402
0	48012	404	402
0	48019	404	401
0	48034	404	401
0	48040	404	301
0	48050	404	301
0	48056	404	201
0	48065	404	201
0	48075	404	101
0	48084	404	302
0	48091	404	404
0	48097	404	403
0	48103	404	402
0	48109	404	401
0	48115	404	301
0	48121	404	201
0	48127	404	101
0	48133	404	404
0	48139	404	403
0	48145	404	402
0	48151	404	401
0	48157	404	301
0	48163	404	201
0	48169	404	101
0	48175	404	1
0	48234	405	401
0	48253	405	401
0	48264	405	301
0	48275	405	301
0	48284	405	201
0	48293	405	201
0	48302	405	101
0	48311	405	401
0	48317	405	301
0	48323	405	201
0	48329	405	101
0	48335	405	401
0	48341	405	301
0	48347	405	201
0	48353	405	101
0	48359	405	1
0	48406	406	401
0	48427	406	401
0	48438	406	301
0	48449	406	301
0	48458	406	201
0	48467	406	201
0	48476	406	401
0	48485	406	301
0	48491	406	201
0	48497	406	1
0	48547	407	401
0	48569	407	401
0	48580	407	301
0	48591	407	301
0	48600	407	201
0	48609	407	201
0	48616	407	401
0	48626	407	301
0	48633	407	201
0	48639	407	1
0	48686	408	401
0	48707	408	401
0	48719	408	301
0	48731	408	301
0	48740	408	201
0	48749	408	201
0	48756	408	401
0	48766	408	301
0	48773	408	201
0	48779	408	1
0	48824	409	401
0	48848	409	301
0	48863	409	201
0	48873	409	401
0	48882	409	401
0	48889	409	301
0	48895	409	301
0	48901	409	201
0	48907	409	201
0	48913	409	1
0	48969	410	401
0	48983	410	401
0	49002	410	301
0	49011	410	301
0	49023	410	201
0	49032	410	201
0	49039	410	401
0	49049	410	401
0	49056	410	301
0	49062	410	301
0	49068	410	201
0	49074	410	201
0	49080	410	1
0	49221	411	401
0	49235	411	401
0	49253	411	301
0	49262	411	301
0	49278	411	201
0	49287	411	201
0	49301	411	401
0	49321	411	401
0	49338	411	301
0	49357	411	301
0	49374	411	201
0	49393	411	201
0	49410	411	1
0	50007	412	401
0	50019	412	401
0	50037	412	301
0	50046	412	301
0	50062	412	201
0	50069	412	201
0	50079	412	407
0	50085	412	407
0	50094	412	307
0	50100	412	307
0	50109	412	207
0	50115	412	207
0	50122	412	107
0	50128	412	107
0	50134	412	406
0	50140	412	406
0	50146	412	306
0	50152	412	306
0	50158	412	206
0	50164	412	206
0	50170	412	106
0	50176	412	106
0	50182	412	405
0	50188	412	405
0	50194	412	305
0	50200	412	305
0	50206	412	205
0	50212	412	205
0	50218	412	105
0	50224	412	105
0	50230	412	404
0	50236	412	404
0	50242	412	304
0	50248	412	304
0	50254	412	204
0	50260	412	204
0	50266	412	104
0	50272	412	104
0	50278	412	403
0	50284	412	403
0	50290	412	303
0	50296	412	303
0	50302	412	203
0	50308	412	203
0	50314	412	103
0	50320	412	103
0	50326	412	402
0	50332	412	402
0	50338	412	302
0	50344	412	302
0	50350	412	202
0	50356	412	202
0	50362	412	102
0	50368	412	102
0	50374	412	101
0	50380	412	101
0	50386	412	401
0	50393	412	401
0	50399	412	301
0	50405	412	301
0	50411	412	201
0	50417	412	201
0	50423	412	407
0	50429	412	407
0	50435	412	307
0	50441	412	307
0	50447	412	207
0	50453	412	207
0	50459	412	107
0	50465	412	107
0	50471	412	406
0	50477	412	406
0	50483	412	306
0	50489	412	306
0	50495	412	206
0	50501	412	206
0	50507	412	106
0	50513	412	106
0	50519	412	405
0	50525	412	405
0	50531	412	305
0	50537	412	305
0	50543	412	205
0	50549	412	205
0	50555	412	105
0	50561	412	105
0	50567	412	404
0	50573	412	404
0	50579	412	304
0	50585	412	304
0	50591	412	204
0	50597	412	204
0	50603	412	104
0	50609	412	104
0	50615	412	403
0	50621	412	403
0	50627	412	303
0	50633	412	303
0	50639	412	203
0	50645	412	203
0	50651	412	103
0	50657	412	103
0	50663	412	402
0	50669	412	402
0	50675	412	302
0	50681	412	302
0	50687	412	202
0	50693	412	202
0	50699	412	102
0	50705	412	102
0	50711	412	101
0	50717	412	101
0	50723	412	407
0	50729	412	307
0	50735	412	207
0	50741	412	107
0	50747	412	406
0	50753	412	306
0	50759	412	206
0	50765	412	106
0	50771	412	405
0	50777	412	305
0	50783	412	205
0	50789	412	105
0	50795	412	404
0	50801	412	304
0	50807	412	204
0	50813	412	104
0	50819	412	403
0	50825	412	303
0	50831	412	203
0	50837	412	103
0	50843	412	402
0	50849	412	302
0	50855	412	202
0	50861	412	102
0	50867	412	401
0	50873	412	301
0	50879	412	201
0	50885	412	101
0	50891	412	1
0	50940	413	201
0	50952	413	201
0	50970	413	101
0	50979	413	101
0	50995	413	201
0	51007	413	201
0	51016	413	101
0	51025	413	101
0	51032	413	201
0	51038	413	101
0	51044	413	1
0	51111	414	201
0	51119	414	201
0	51140	414	101
0	51146	414	101
0	51163	414	201
0	51183	414	201
0	51200	414	101
0	51219	414	101
0	51236	414	201
0	51255	414	101
0	51270	414	1
0	51376	415	403
0	51384	415	403
0	51405	415	303
0	51411	415	303
0	51428	415	402
0	51434	415	402
0	51453	415	302
0	51459	415	302
0	51474	415	401
0	51480	415	401
0	51492	415	301
0	51498	415	301
0	51505	415	201
0	51511	415	201
0	51517	415	403
0	51523	415	101
0	51529	415	403
0	51536	415	303
0	51542	415	303
0	51548	415	402
0	51554	415	402
0	51560	415	302
0	51566	415	302
0	51572	415	401
0	51578	415	401
0	51584	415	301
0	51590	415	301
0	51596	415	201
0	51602	415	201
0	51608	415	101
0	51614	415	101
0	51620	415	1
0	51683	416	401
0	51691	416	401
0	51712	416	301
0	51718	416	301
0	51735	416	201
0	51741	416	201
0	51760	416	401
0	51766	416	101
0	51781	416	401
0	51794	416	301
0	51801	416	301
0	51807	416	201
0	51813	416	201
0	51819	416	101
0	51825	416	101
0	51831	416	1
0	51895	417	401
0	51903	417	401
0	51923	417	301
0	51929	417	301
0	51946	417	201
0	51952	417	201
0	51971	417	401
0	51977	417	101
0	51992	417	401
0	52005	417	301
0	52012	417	301
0	52018	417	201
0	52024	417	201
0	52030	417	101
0	52036	417	101
0	52042	417	1
0	52106	418	401
0	52114	418	401
0	52135	418	301
0	52141	418	301
0	52159	418	201
0	52165	418	201
0	52184	418	401
0	52190	418	101
0	52206	418	401
0	52219	418	301
0	52226	418	301
0	52232	418	201
0	52238	418	201
0	52244	418	101
0	52250	418	101
0	52256	418	1
0	52327	419	401
0	52335	419	401
0	52355	419	301
0	52361	419	301
0	52378	419	201
0	52384	419	201
0	52404	419	101
0	52410	419	101
0	52425	419	401
0	52439	419	401
0	52446	419	301
0	52452	419	301
0	52458	419	201
0	52464	419	201
0	52470	419	101
0	52476	419	101
0	52482	419	1
0	52609	420	420
0	52617	420	420
0	52637	420	419
0	52643	420	419
0	52660	420	418
0	52666	420	418
0	52686	420	417
0	52692	420	417
0	52707	420	416
0	52713	420	416
0	52726	420	415
0	52732	420	415
0	52739	420	414
0	52745	420	414
0	52751	420	413
0	52757	420	413
0	52763	420	412
0	52769	420	412
0	52775	420	411
0	52781	420	411
0	52787	420	410
0	52793	420	410
0	52799	420	409
0	52805	420	409
0	52811	420	408
0	52817	420	408
0	52823	420	407
0	52829	420	407
0	52835	420	406
0	52841	420	406
0	52847	420	405
0	52853	420	405
0	52859	420	404
0	52865	420	404
0	52871	420	403
0	52877	420	403
0	52883	420	402
0	52889	420	402
0	52895	420	401
0	52901	420	401
0	52907	420	301
0	52913	420	301
0	52919	420	201
0	52925	420	201
0	52931	420	101
0	52937	420	101
0	52943	420	401
0	52950	420	401
0	52956	420	301
0	52962	420	301
0	52968	420	201
0	52974	420	201
0	52980	420	101
0	52986	420	101
0	52992	420	1
0	53062	421	401
0	53070	421	401
0	53090	421	301
0	53096	421	301
0	53113	421	201
0	53119	421	201
0	53139	421	101
0	53145	421	101
0	53160	421	401
0	53174	421	401
0	53181	421	301
0	53187	421	301
0	53193	421	201
0	53199	421	201
0	53205	421	101
0	53211	421	101
0	53217	421	1
0	53399	422	415
0	53425	422	315
0	53448	422	414
0	53473	422	314
0	53494	422	413
0	53512	422	313
0	53525	422	412
0	53536	422	312
0	53548	422	411
0	53559	422	311
0	53571	422	410
0	53582	422	310
0	53594	422	409
0	53605	422	309
0	53617	422	408
0	53628	422	308
0	53640	422	407
0	53651	422	307
0	53663	422	406
0	53674	422	306
0	53686	422	405
0	53697	422	305
0	53709	422	404
0	53720	422	304
0	53732	422	422
0	53743	422	421
0	53755	422	420
0	53766	422	419
0	53778	422	418
0	53789	422	417
0	53801	422	416
0	53812	422	403
0	53824	422	303
0	53835	422	402
0	53847	422	302
0	53858	422	401
0	53870	422	301
0	53881	422	201
0	53893	422	101
0	53904	422	415
0	53916	422	315
0	53927	422	414
0	53939	422	314
0	53950	422	413
0	53962	422	313
0	53973	422	412
0	53985	422	312
0	53996	422	411
0	54004	422	311
0	54010	422	410
0	54016	422	310
0	54022	422	409
0	54028	422	309
0	54034	422	408
0	54040	422	308
0	54046	422	407
0	54052	422	307
0	54058	422	406
0	54064	422	306
0	54070	422	405
0	54076	422	305
0	54082	422	404
0	54088	422	304
0	54094	422	422
0	54100	422	421
0	54106	422	420
0	54112	422	419
0	54118	422	418
0	54124	422	417
0	54130	422	416
0	54136	422	403
0	54142	422	303
0	54148	422	402
0	54154	422	302
0	54160	422	401
0	54166	422	301
0	54172	422	201
0	54178	422	101
0	54184	422	401
0	54190	422	401
0	54196	422	301
0	54202	422	301
0	54208	422	201
0	54214	422	201
0	54220	422	101
0	54226	422	101
0	54232	422	1
0	54295	423	401
0	54311	423	301
0	54326	423	201
0	54338	423	101
0	54350	423	401
0	54361	423	301
0	54373	423	201
0	54384	423	101
0	54396	423	401
0	54407	423	401
0	54419	423	301
0	54430	423	301
0	54442	423	201
0	54449	423	201
0	54455	423	101
0	54461	423	101
0	54467	423	1
0	54508	424	401
0	54524	424	301
0	54539	424	101
0	54551	424	401
0	54563	424	301
0	54574	424	101
0	54582	424	401
0	54588	424	301
0	54594	424	101
0	54632	425	401
0	54649	425	301
0	54666	425	101
0	54678	425	401
0	54690	425	301
0	54701	425	101
0	54709	425	401
0	54715	425	301
0	54721	425	101
0	54746	426	401
0	54764	426	301
0	54781	426	101
0	54789	426	101
0	54795	426	401
0	54801	426	301
0	54807	426	101
0	54835	427	401
0	54859	427	301
0	54882	427	101
0	54898	427	101
0	54912	427	401
0	54927	427	301
0	54941	427	101
0	55025	428	401
0	55036	428	401
0	55049	428	301
0	55064	428	301
0	55071	428	101
0	55081	428	101
0	55091	428	101
0	55098	428	105
0	55104	428	5
0	55110	428	104
0	55116	428	4
0	55122	428	103
0	55128	428	3
0	55134	428	102
0	55140	428	2
0	55146	428	101
0	55152	428	1
0	55234	429	401
0	55249	429	401
0	55263	429	301
0	55278	429	301
0	55285	429	101
0	55295	429	101
0	55305	429	101
0	55314	429	101
0	55323	429	1
0	55683	430	401
0	55698	430	418
0	55712	430	301
0	55727	430	318
0	55734	430	101
0	55744	430	417
0	55754	430	317
0	55763	430	416
0	55770	430	316
0	55776	430	216
0	55782	430	415
0	55788	430	315
0	55794	430	215
0	55800	430	414
0	55806	430	314
0	55812	430	214
0	55818	430	413
0	55824	430	313
0	55830	430	213
0	55836	430	412
0	55842	430	312
0	55848	430	212
0	55854	430	430
0	55860	430	429
0	55866	430	428
0	55872	430	427
0	55878	430	426
0	55884	430	425
0	55890	430	424
0	55896	430	423
0	55902	430	422
0	55908	430	421
0	55914	430	420
0	55920	430	419
0	55926	430	411
0	55932	430	311
0	55938	430	211
0	55944	430	410
0	55950	430	310
0	55956	430	210
0	55962	430	409
0	55968	430	309
0	55974	430	209
0	55980	430	408
0	55986	430	308
0	55992	430	208
0	55998	430	407
0	56004	430	307
0	56010	430	406
0	56016	430	306
0	56022	430	405
0	56028	430	305
0	56034	430	404
0	56040	430	304
0	56046	430	403
0	56052	430	303
0	56058	430	402
0	56064	430	302
0	56070	430	401
0	56076	430	301
0	56082	430	101
0	56088	430	418
0	56094	430	318
0	56100	430	417
0	56106	430	317
0	56112	430	416
0	56118	430	316
0	56124	430	216
0	56130	430	415
0	56136	430	315
0	56142	430	215
0	56148	430	414
0	56154	430	314
0	56160	430	214
0	56166	430	413
0	56172	430	313
0	56178	430	213
0	56184	430	412
0	56190	430	312
0	56196	430	212
0	56202	430	430
0	56208	430	429
0	56214	430	428
0	56220	430	427
0	56226	430	426
0	56232	430	425
0	56238	430	424
0	56244	430	423
0	56250	430	422
0	56256	430	421
0	56262	430	420
0	56268	430	419
0	56274	430	411
0	56280	430	311
0	56286	430	211
0	56292	430	410
0	56298	430	310
0	56304	430	210
0	56310	430	409
0	56316	430	309
0	56322	430	209
0	56328	430	408
0	56334	430	308
0	56340	430	208
0	56346	430	407
0	56352	430	307
0	56358	430	406
0	56364	430	306
0	56370	430	405
0	56376	430	305
0	56382	430	404
0	56388	430	304
0	56394	430	403
0	56400	430	303
0	56406	430	402
0	56412	430	302
0	56418	430	401
0	56424	430	301
0	56430	430	101
0	56436	430	101
0	56442	430	1
0	56480	431	401
0	56498	431	401
0	56511	431	301
0	56527	431	301
0	56536	431	101
0	56544	431	101
0	56554	431	401
0	56563	431	301
0	56572	431	101
0	56581	431	101
0	56590	431	1
0	56630	432	401
0	56651	432	401
0	56663	432	301
0	56679	432	101
0	56691	432	301
0	56700	432	401
0	56709	432	101
0	56718	432	301
0	56727	432	401
0	56736	432	101
0	56743	432	301
0	56749	432	1
0	56786	433	401
0	56809	433	401
0	56819	433	301
0	56835	433	101
0	56847	433	301
0	56856	433	401
0	56865	433	101
0	56874	433	301
0	56883	433	401
0	56892	433	101
0	56899	433	301
0	56905	433	1
0	56945	434	401
0	56968	434	401
0	56981	434	301
0	56997	434	101
0	57010	434	301
0	57019	434	401
0	57028	434	101
0	57037	434	301
0	57046	434	401
0	57055	434	101
0	57062	434	301
0	57068	434	1
0	57134	435	401
0	57143	435	342
0	57170	435	301
0	57176	435	341
0	57196	435	340
0	57208	435	339
0	57217	435	338
0	57226	435	337
0	57235	435	336
0	57244	435	335
0	57251	435	334
0	57257	435	333
0	57263	435	435
0	57269	435	434
0	57275	435	433
0	57281	435	432
0	57287	435	332
0	57293	435	431
0	57299	435	331
0	57305	435	430
0	57311	435	330
0	57317	435	429
0	57323	435	329
0	57329	435	404
0	57335	435	304
0	57341	435	403
0	57347	435	303
0	57353	435	402
0	57359	435	302
0	57365	435	401
0	57371	435	301
0	57377	435	101
0	57383	435	401
0	57389	435	101
0	57395	435	301
0	57401	435	401
0	57407	435	101
0	57413	435	301
0	57419	435	1
0	57457	436	401
0	57466	436	401
0	57493	436	301
0	57512	436	101
0	57523	436	401
0	57532	436	101
0	57541	436	301
0	57550	436	401
0	57559	436	101
0	57566	436	301
0	57572	436	1
0	57609	437	401
0	57618	437	401
0	57645	437	301
0	57664	437	101
0	57675	437	401
0	57684	437	101
0	57693	437	301
0	57702	437	401
0	57711	437	101
0	57718	437	301
0	57724	437	1
0	57758	438	401
0	57784	438	301
0	57803	438	101
0	57814	438	401
0	57823	438	101
0	57832	438	301
0	57841	438	401
0	57850	438	101
0	57857	438	301
0	57863	438	1
0	57897	439	401
0	57923	439	301
0	57942	439	101
0	57953	439	401
0	57962	439	101
0	57971	439	301
0	57980	439	401
0	57989	439	101
0	57996	439	301
0	58002	439	1
0	58039	440	401
0	58067	440	301
0	58086	440	101
0	58097	440	401
0	58106	440	101
0	58115	440	301
0	58124	440	401
0	58133	440	101
0	58140	440	301
0	58146	440	1
0	58180	441	401
0	58206	441	301
0	58225	441	101
0	58236	441	401
0	58245	441	101
0	58254	441	301
0	58263	441	401
0	58272	441	101
0	58279	441	301
0	58285	441	1
0	58320	442	401
0	58345	442	301
0	58364	442	101
0	58375	442	401
0	58384	442	101
0	58393	442	301
0	58402	442	401
0	58411	442	101
0	58418	442	301
0	58424	442	1
0	58455	443	401
0	58472	443	301
0	58486	443	101
0	58496	443	401
0	58503	443	101
0	58509	443	301
0	58515	443	401
0	58521	443	101
0	58527	443	301
0	58533	443	1
0	58594	444	413
0	58606	444	413
0	58622	444	412
0	58628	444	412
0	58642	444	411
0	58648	444	411
0	58658	444	410
0	58664	444	410
0	58671	444	409
0	58677	444	409
0	58683	444	408
0	58689	444	408
0	58695	444	407
0	58701	444	407
0	58707	444	406
0	58713	444	406
0	58719	444	405
0	58725	444	405
0	58731	444	404
0	58737	444	404
0	58743	444	403
0	58749	444	403
0	58755	444	402
0	58761	444	402
0	58767	444	401
0	58773	444	401
0	58779	444	301
0	58785	444	301
0	58791	444	101
0	58797	444	101
0	58804	444	101
0	58810	444	101
0	58816	444	1
0	58862	445	401
0	58877	445	401
0	58891	445	301
0	58900	445	301
0	58911	445	101
0	58920	445	101
0	58932	445	101
0	58941	445	101
0	58950	445	1
0	59502	446	401
0	59525	446	401
0	59541	446	301
0	59556	446	301
0	59567	446	415
0	59581	446	415
0	59593	446	414
0	59607	446	414
0	59618	446	413
0	59633	446	413
0	59644	446	412
0	59658	446	412
0	59670	446	411
0	59684	446	411
0	59695	446	410
0	59710	446	410
0	59721	446	409
0	59735	446	409
0	59747	446	408
0	59761	446	408
0	59772	446	407
0	59787	446	407
0	59798	446	406
0	59812	446	406
0	59824	446	405
0	59838	446	405
0	59849	446	404
0	59864	446	404
0	59875	446	403
0	59889	446	403
0	59901	446	303
0	59915	446	303
0	59926	446	402
0	59941	446	402
0	59952	446	302
0	59966	446	302
0	59978	446	101
0	59992	446	101
0	60013	446	415
0	60032	446	414
0	60052	446	413
0	60072	446	412
0	60091	446	411
0	60111	446	410
0	60131	446	409
0	60150	446	408
0	60170	446	407
0	60190	446	406
0	60209	446	405
0	60229	446	404
0	60249	446	403
0	60268	446	303
0	60288	446	402
0	60308	446	302
0	60327	446	401
0	60347	446	301
0	60367	446	101
0	60386	446	101
0	60406	446	1
0	62065	447	401
0	62092	447	401
0	62103	447	301
0	62118	447	301
0	62129	447	424
0	62143	447	424
0	62155	447	324
0	62165	447	324
0	62176	447	224
0	62185	447	224
0	62193	447	423
0	62202	447	423
0	62208	447	323
0	62217	447	323
0	62223	447	223
0	62232	447	223
0	62238	447	422
0	62247	447	422
0	62253	447	322
0	62262	447	322
0	62268	447	222
0	62277	447	222
0	62283	447	421
0	62292	447	421
0	62298	447	321
0	62305	447	321
0	62311	447	221
0	62317	447	221
0	62323	447	420
0	62329	447	420
0	62335	447	320
0	62341	447	320
0	62347	447	220
0	62353	447	220
0	62359	447	419
0	62365	447	419
0	62371	447	319
0	62377	447	319
0	62383	447	219
0	62389	447	219
0	62395	447	418
0	62401	447	418
0	62407	447	318
0	62413	447	318
0	62419	447	218
0	62425	447	218
0	62431	447	417
0	62437	447	417
0	62443	447	317
0	62449	447	317
0	62455	447	217
0	62461	447	217
0	62467	447	416
0	62473	447	416
0	62479	447	316
0	62485	447	316
0	62491	447	216
0	62497	447	216
0	62503	447	415
0	62509	447	415
0	62515	447	315
0	62521	447	315
0	62527	447	215
0	62533	447	215
0	62539	447	414
0	62545	447	414
0	62551	447	314
0	62557	447	314
0	62563	447	214
0	62569	447	214
0	62575	447	413
0	62581	447	413
0	62587	447	313
0	62593	447	313
0	62599	447	213
0	62605	447	213
0	62611	447	412
0	62617	447	412
0	62623	447	312
0	62629	447	312
0	62635	447	212
0	62641	447	212
0	62647	447	411
0	62653	447	411
0	62659	447	311
0	62665	447	311
0	62671	447	211
0	62677	447	211
0	62683	447	410
0	62689	447	410
0	62695	447	310
0	62701	447	310
0	62707	447	210
0	62713	447	210
0	62719	447	409
0	62725	447	409
0	62731	447	309
0	62737	447	309
0	62743	447	209
0	62749	447	209
0	62755	447	408
0	62761	447	408
0	62767	447	308
0	62773	447	308
0	62779	447	208
0	62785	447	208
0	62791	447	407
0	62797	447	407
0	62803	447	307
0	62809	447	307
0	62815	447	207
0	62821	447	207
0	62827	447	406
0	62833	447	406
0	62839	447	306
0	62845	447	306
0	62851	447	206
0	62857	447	206
0	62863	447	405
0	62869	447	405
0	62875	447	305
0	62881	447	305
0	62887	447	205
0	62893	447	205
0	62899	447	404
0	62905	447	404
0	62911	447	304
0	62917	447	304
0	62923	447	204
0	62929	447	204
0	62935	447	403
0	62941	447	403
0	62947	447	303
0	62953	447	303
0	62959	447	203
0	62965	447	203
0	62971	447	402
0	62977	447	402
0	62983	447	302
0	62989	447	302
0	62995	447	202
0	63001	447	202
0	63007	447	201
0	63013	447	201
0	63019	447	101
0	63025	447	101
0	63032	447	424
0	63038	447	424
0	63044	447	324
0	63050	447	324
0	63056	447	224
0	63062	447	224
0	63068	447	423
0	63074	447	423
0	63080	447	323
0	63086	447	323
0	63092	447	223
0	63098	447	223
0	63104	447	422
0	63110	447	422
0	63116	447	322
0	63122	447	322
0	63128	447	222
0	63134	447	222
0	63140	447	421
0	63146	447	421
0	63152	447	321
0	63158	447	321
0	63164	447	221
0	63170	447	221
0	63176	447	420
0	63182	447	420
0	63188	447	320
0	63194	447	320
0	63200	447	220
0	63206	447	220
0	63212	447	419
0	63218	447	419
0	63224	447	319
0	63230	447	319
0	63236	447	219
0	63242	447	219
0	63248	447	418
0	63254	447	418
0	63260	447	318
0	63266	447	318
0	63272	447	218
0	63278	447	218
0	63284	447	417
0	63290	447	417
0	63296	447	317
0	63302	447	317
0	63308	447	217
0	63314	447	217
0	63320	447	416
0	63326	447	416
0	63332	447	316
0	63338	447	316
0	63344	447	216
0	63350	447	216
0	63356	447	415
0	63362	447	415
0	63368	447	315
0	63374	447	315
0	63380	447	215
0	63386	447	215
0	63392	447	414
0	63398	447	414
0	63404	447	314
0	63410	447	314
0	63416	447	214
0	63422	447	214
0	63428	447	413
0	63434	447	413
0	63440	447	313
0	63446	447	313
0	63452	447	213
0	63458	447	213
0	63464	447	412
0	63470	447	412
0	63476	447	312
0	63482	447	312
0	63488	447	212
0	63494	447	212
0	63500	447	411
0	63506	447	411
0	63512	447	311
0	63518	447	311
0	63524	447	211
0	63530	447	211
0	63536	447	410
0	63542	447	410
0	63548	447	310
0	63554	447	310
0	63560	447	210
0	63566	447	210
0	63572	447	409
0	63578	447	409
0	63584	447	309
0	63590	447	309
0	63596	447	209
0	63602	447	209
0	63608	447	408
0	63614	447	408
0	63620	447	308
0	63626	447	308
0	63632	447	208
0	63638	447	208
0	63644	447	407
0	63650	447	407
0	63656	447	307
0	63662	447	307
0	63668	447	207
0	63674	447	207
0	63680	447	406
0	63686	447	406
0	63692	447	306
0	63698	447	306
0	63704	447	206
0	63710	447	206
0	63716	447	405
0	63722	447	405
0	63728	447	305
0	63734	447	305
0	63740	447	205
0	63746	447	205
0	63752	447	404
0	63758	447	404
0	63764	447	304
0	63770	447	304
0	63776	447	204
0	63782	447	204
0	63788	447	403
0	63794	447	403
0	63800	447	303
0	63806	447	303
0	63812	447	203
0	63818	447	203
0	63824	447	402
0	63830	447	402
0	63836	447	302
0	63842	447	302
0	63848	447	202
0	63854	447	202
0	63860	447	401
0	63866	447	401
0	63872	447	301
0	63878	447	301
0	63884	447	201
0	63890	447	201
0	63896	447	101
0	63902	447	1
0	63974	448	401
0	64006	448	301
0	64026	448	201
0	64046	448	101
0	64154	449	401
0	64172	449	301
0	64187	449	201
0	64201	449	101
0	64286	450	401
0	64304	450	301
0	64319	450	201
0	64333	450	101
0	64414	451	401
0	64436	451	404
0	64442	451	301
0	64457	451	304
0	64463	451	201
0	64477	451	204
0	64483	451	101
0	64498	451	104
0	64513	451	404
0	64524	451	404
0	64533	451	304
0	64542	451	304
0	64551	451	204
0	64558	451	204
0	64564	451	104
0	64570	451	4
0	64576	451	403
0	64582	451	303
0	64588	451	203
0	64594	451	103
0	64600	451	403
0	64606	451	403
0	64612	451	303
0	64618	451	303
0	64624	451	203
0	64630	451	203
0	64636	451	103
0	64642	451	3
0	64648	451	402
0	64654	451	302
0	64660	451	202
0	64666	451	102
0	64672	451	402
0	64678	451	302
0	64684	451	202
0	64690	451	102
0	64696	451	2
0	64702	451	401
0	64708	451	301
0	64714	451	201
0	64720	451	101
0	64726	451	401
0	64732	451	301
0	64738	451	201
0	64744	451	101
0	64750	451	1
0	64816	452	401
0	64838	452	401
0	64849	452	301
0	64864	452	301
0	64875	452	201
0	64889	452	201
0	64901	452	101
0	64915	452	101
0	64936	452	401
0	64951	452	301
0	64962	452	201
0	64971	452	101
0	64980	452	1
0	65071	453	401
0	65087	453	401
0	65099	453	301
0	65108	453	301
0	65121	453	201
0	65130	453	201
0	65141	453	101
0	65150	453	101
0	65167	453	401
0	65177	453	404
0	65186	453	301
0	65195	453	304
0	65204	453	201
0	65211	453	204
0	65217	453	101
0	65223	453	403
0	65229	453	1
0	65235	453	303
0	65241	453	203
0	65305	454	401
0	65320	454	405
0	65334	454	301
0	65343	454	305
0	65357	454	201
0	65366	454	205
0	65377	454	101
0	65386	454	404
0	65404	454	304
0	65414	454	204
0	65423	454	401
0	65432	454	301
0	65441	454	201
0	65448	454	101
0	65454	454	401
0	65460	454	301
0	65466	454	201
0	65472	454	101
0	65478	454	1
0	65534	455	401
0	65549	455	401
0	65562	455	301
0	65571	455	301
0	65584	455	201
0	65593	455	201
0	65604	455	101
0	65613	455	101
0	65630	455	401
0	65640	455	301
0	65649	455	201
0	65658	455	101
0	65667	455	1
0	65723	456	401
0	65738	456	401
0	65751	456	301
0	65760	456	301
0	65773	456	201
0	65782	456	201
0	65793	456	101
0	65802	456	101
0	65819	456	401
0	65829	456	301
0	65838	456	201
0	65847	456	101
0	65856	456	1
0	65913	457	401
0	65929	457	401
0	65942	457	301
0	65951	457	301
0	65964	457	201
0	65973	457	201
0	65984	457	101
0	65993	457	101
0	66010	457	401
0	66020	457	301
0	66029	457	201
0	66038	457	101
0	66047	457	1
0	66102	458	401
0	66117	458	401
0	66130	458	301
0	66139	458	301
0	66152	458	201
0	66161	458	201
0	66172	458	101
0	66181	458	101
0	66198	458	401
0	66208	458	301
0	66217	458	201
0	66226	458	101
0	66235	458	1
0	66290	459	401
0	66305	459	401
0	66318	459	301
0	66327	459	301
0	66340	459	201
0	66349	459	201
0	66360	459	101
0	66369	459	101
0	66386	459	401
0	66396	459	301
0	66405	459	201
0	66414	459	101
0	66423	459	1
0	66478	460	401
0	66493	460	401
0	66506	460	301
0	66515	460	301
0	66528	460	201
0	66537	460	201
0	66548	460	101
0	66557	460	101
0	66574	460	401
0	66584	460	301
0	66593	460	201
0	66602	460	101
0	66611	460	1
0	66667	461	401
0	66683	461	401
0	66696	461	301
0	66705	461	301
0	66718	461	201
0	66727	461	201
0	66738	461	101
0	66747	461	101
0	66764	461	401
0	66774	461	301
0	66783	461	201
0	66792	461	101
0	66801	461	1
0	66858	462	401
0	66875	462	401
0	66888	462	301
0	66897	462	301
0	66911	462	201
0	66920	462	201
0	66931	462	101
0	66940	462	101
0	66958	462	401
0	66968	462	301
0	66977	462	201
0	66986	462	101
0	66995	462	1
0	67053	463	401
0	67069	463	420
0	67083	463	301
0	67092	463	401
0	67106	463	201
0	67115	463	301
0	67126	463	101
0	67135	463	201
0	67153	463	101
0	67163	463	401
0	67172	463	301
0	67181	463	201
0	67190	463	101
0	67197	463	1
0	67268	464	401
0	67289	464	301
0	67313	464	201
0	67332	464	101
0	67352	464	401
0	67362	464	301
0	67371	464	201
0	67380	464	101
0	67389	464	1
0	67396	464	401
0	67402	464	301
0	67408	464	201
0	67414	464	101
0	67485	465	401
0	67507	465	301
0	67530	465	201
0	67549	465	401
0	67568	465	301
0	67578	465	201
0	67587	465	101
0	67596	465	401
0	67605	465	301
0	67612	465	201
0	67618	465	101
0	67624	465	1
0	67630	465	401
0	67636	465	301
0	67642	465	201
0	67648	465	101
0	67725	466	401
0	67746	466	301
0	67769	466	201
0	67788	466	101
0	67807	466	401
0	67817	466	301
0	67826	466	201
0	67835	466	101
0	67844	466	401
0	67851	466	301
0	67857	466	201
0	67863	466	101
0	67869	466	1
0	67875	466	401
0	67881	466	301
0	67887	466	201
0	67893	466	101
0	67971	467	401
0	67993	467	301
0	68016	467	201
0	68035	467	101
0	68054	467	401
0	68064	467	301
0	68073	467	201
0	68082	467	101
0	68091	467	401
0	68098	467	301
0	68104	467	201
0	68110	467	101
0	68116	467	1
0	68122	467	401
0	68128	467	301
0	68134	467	201
0	68140	467	101
0	68195	468	401
0	68222	468	301
0	68245	468	201
0	68264	468	101
0	68287	468	401
0	68298	468	301
0	68305	468	201
0	68311	468	101
0	68317	468	401
0	68323	468	301
0	68329	468	201
0	68335	468	101
0	68341	468	1
0	68347	468	401
0	68353	468	301
0	68359	468	201
0	68365	468	101
0	68412	469	401
0	68440	469	301
0	68473	469	201
0	68497	469	101
0	68526	469	402
0	68545	469	401
0	68571	469	301
0	68590	469	201
0	68616	469	101
0	68635	469	402
0	68661	469	401
0	68676	469	301
0	68692	469	201
0	68786	470	401
0	68815	470	301
0	68847	470	201
0	68867	470	101
0	68893	470	401
0	68908	470	301
0	68924	470	201
0	68938	470	101
0	68954	470	402
0	68968	470	302
0	68980	470	202
0	68987	470	102
0	68993	470	2
0	68999	470	401
0	69005	470	301
0	69011	470	201
0	69017	470	101
0	69023	470	1
0	69029	470	401
0	69035	470	301
0	69041	470	201
0	69103	471	401
0	69129	471	301
0	69159	471	201
0	69179	471	101
0	69204	471	401
0	69219	471	301
0	69234	471	201
0	69248	471	101
0	69263	471	401
0	69277	471	301
0	69288	471	201
0	69295	471	101
0	69301	471	1
0	69307	471	401
0	69313	471	301
0	69319	471	201
0	69381	472	401
0	69409	472	301
0	69441	472	201
0	69461	472	101
0	69487	472	401
0	69502	472	301
0	69517	472	201
0	69531	472	101
0	69546	472	401
0	69560	472	301
0	69571	472	201
0	69578	472	101
0	69584	472	1
0	69590	472	401
0	69596	472	301
0	69602	472	201
0	69664	473	401
0	69689	473	301
0	69718	473	201
0	69738	473	101
0	69762	473	401
0	69777	473	301
0	69792	473	201
0	69806	473	101
0	69821	473	401
0	69835	473	301
0	69846	473	201
0	69853	473	101
0	69859	473	1
0	69865	473	401
0	69871	473	301
0	69877	473	201
0	69938	474	401
0	69964	474	301
0	69992	474	201
0	70016	474	101
0	70044	474	401
0	70064	474	301
0	70083	474	201
0	70102	474	401
0	70121	474	301
0	70140	474	201
0	70155	474	101
0	70167	474	401
0	70174	474	301
0	70180	474	201
0	70186	474	101
0	70192	474	1
0	70265	475	410
0	70294	475	310
0	70322	475	409
0	70346	475	309
0	70374	475	408
0	70394	475	308
0	70413	475	407
0	70432	475	307
0	70451	475	406
0	70470	475	306
0	70485	475	405
0	70497	475	305
0	70508	475	404
0	70515	475	304
0	70521	475	403
0	70527	475	303
0	70533	475	402
0	70539	475	302
0	70545	475	401
0	70551	475	301
0	70557	475	201
0	70563	475	101
0	70569	475	401
0	70575	475	301
0	70581	475	201
0	70587	475	401
0	70593	475	301
0	70599	475	201
0	70605	475	101
0	70611	475	401
0	70617	475	301
0	70623	475	201
0	70629	475	101
0	70635	475	1
0	70708	476	401
0	70736	476	301
0	70760	476	201
0	70788	476	401
0	70808	476	301
0	70827	476	201
0	70846	476	101
0	70865	476	401
0	70884	476	301
0	70899	476	201
0	70911	476	101
0	70918	476	1
0	70997	477	401
0	71025	477	301
0	71049	477	201
0	71077	477	101
0	71097	477	401
0	71116	477	301
0	71135	477	201
0	71154	477	101
0	71173	477	401
0	71188	477	301
0	71200	477	201
0	71211	477	101
0	71218	477	1
0	71303	478	401
0	71332	478	301
0	71356	478	201
0	71385	478	101
0	71405	478	401
0	71424	478	301
0	71443	478	201
0	71462	478	101
0	71481	478	401
0	71496	478	301
0	71508	478	201
0	71519	478	101
0	71526	478	1
0	71608	479	401
0	71630	479	301
0	71653	479	201
0	71675	479	101
0	71696	479	401
0	71711	479	301
0	71723	479	201
0	71734	479	101
0	71745	479	401
0	71756	479	301
0	71767	479	201
0	71778	479	101
0	71785	479	1
0	71859	480	401
0	71882	480	301
0	71904	480	201
0	71927	480	101
0	71947	480	401
0	71963	480	301
0	71975	480	201
0	71986	480	101
0	71997	480	401
0	72004	480	301
0	72010	480	201
0	72016	480	101
0	72022	480	1
0	72082	481	401
0	72100	481	401
0	72115	481	301
0	72124	481	301
0	72138	481	201
0	72147	481	201
0	72162	481	101
0	72171	481	101
0	72185	481	401
0	72198	481	301
0	72205	481	201
0	72211	481	101
0	72217	481	1
0	72275	482	401
0	72294	482	401
0	72309	482	301
0	72318	482	301
0	72332	482	201
0	72341	482	201
0	72356	482	101
0	72365	482	101
0	72379	482	401
0	72392	482	301
0	72399	482	201
0	72405	482	101
0	72411	482	1
0	72469	483	401
0	72491	483	401
0	72505	483	301
0	72516	483	301
0	72530	483	201
0	72541	483	201
0	72555	483	101
0	72566	483	101
0	72580	483	401
0	72592	483	301
0	72601	483	201
0	72610	483	101
0	72619	483	1
0	72679	484	401
0	72710	484	301
0	72729	484	201
0	72748	484	101
0	72767	484	401
0	72778	484	401
0	72787	484	301
0	72796	484	301
0	72805	484	201
0	72814	484	201
0	72821	484	101
0	72827	484	101
0	72833	484	1
0	72888	485	401
0	72918	485	301
0	72937	485	201
0	72956	485	101
0	72975	485	401
0	72986	485	401
0	72995	485	301
0	73004	485	301
0	73013	485	201
0	73022	485	201
0	73029	485	101
0	73035	485	101
0	73041	485	1
0	73096	486	401
0	73126	486	301
0	73145	486	201
0	73164	486	101
0	73183	486	401
0	73194	486	401
0	73203	486	301
0	73212	486	301
0	73221	486	201
0	73230	486	201
0	73237	486	101
0	73243	486	101
0	73249	486	1
0	73363	487	401
0	73394	487	301
0	73414	487	201
0	73433	487	101
0	73453	487	401
0	73465	487	401
0	73474	487	301
0	73483	487	301
0	73492	487	201
0	73501	487	201
0	73510	487	101
0	73519	487	101
0	73528	487	1
0	73937	488	401
0	73968	488	301
0	73988	488	420
0	74008	488	320
0	74027	488	220
0	74039	488	419
0	74048	488	201
0	74057	488	319
0	74066	488	101
0	74075	488	219
0	74084	488	418
0	74093	488	318
0	74102	488	218
0	74109	488	417
0	74115	488	317
0	74121	488	217
0	74127	488	416
0	74133	488	316
0	74139	488	216
0	74145	488	415
0	74151	488	315
0	74157	488	215
0	74163	488	414
0	74169	488	314
0	74175	488	214
0	74181	488	413
0	74187	488	313
0	74193	488	213
0	74199	488	412
0	74205	488	312
0	74211	488	212
0	74217	488	411
0	74223	488	311
0	74229	488	211
0	74235	488	410
0	74241	488	310
0	74247	488	210
0	74253	488	409
0	74259	488	309
0	74265	488	209
0	74271	488	408
0	74277	488	308
0	74283	488	208
[...]
0	325602	972	301
0	325613	972	301
0	325624	972	201
0	325633	972	201
0	325645	972	101
0	325654	972	101
0	325669	972	901
0	325680	972	801
0	325689	972	701
0	325698	972	601
0	325707	972	501
0	325716	972	401
0	325725	972	901
0	325734	972	801
0	325743	972	701
0	325752	972	601
0	325761	972	501
0	325770	972	401
0	325779	972	301
0	325788	972	201
0	325797	972	101
0	325806	972	1
0	325951	973	901
0	325973	973	901
0	325985	973	801
0	325999	973	801
0	326011	973	701
0	326025	973	701
0	326036	973	601
0	326051	973	601
0	326062	973	501
0	326076	973	501
0	326088	973	401
0	326102	973	401
0	326113	973	301
0	326128	973	301
0	326139	973	201
0	326153	973	201
0	326165	973	101
0	326179	973	101
0	326196	973	901
0	326206	973	901
0	326215	973	801
0	326224	973	801
0	326233	973	701
0	326242	973	701
0	326251	973	601
0	326260	973	601
0	326269	973	501
0	326278	973	501
0	326287	973	401
0	326296	973	401
0	326305	973	301
0	326314	973	201
0	326323	973	101
0	326332	973	1
0	326490	974	901
0	326512	974	901
0	326524	974	801
0	326538	974	801
0	326550	974	701
0	326564	974	701
0	326575	974	601
0	326590	974	601
0	326601	974	501
0	326615	974	501
0	326627	974	401
0	326641	974	401
0	326652	974	301
0	326667	974	301
0	326678	974	201
0	326692	974	201
0	326704	974	101
0	326718	974	101
0	326735	974	901
0	326745	974	901
0	326754	974	801
0	326763	974	801
0	326772	974	701
0	326781	974	701
0	326790	974	601
0	326799	974	601
0	326808	974	501
0	326817	974	501
0	326826	974	401
0	326835	974	401
0	326844	974	301
0	326853	974	301
0	326862	974	201
0	326871	974	201
0	326880	974	101
0	326889	974	101
0	326898	974	1
0	327053	975	901
0	327077	975	901
0	327089	975	801
0	327103	975	801
0	327118	975	701
0	327132	975	701
0	327143	975	601
0	327161	975	601
0	327172	975	501
0	327186	975	501
0	327201	975	401
0	327215	975	401
0	327226	975	301
0	327244	975	301
0	327255	975	201
0	327269	975	201
0	327284	975	101
0	327298	975	101
0	327318	975	901
0	327328	975	901
0	327337	975	801
0	327346	975	801
0	327355	975	701
0	327364	975	701
0	327373	975	601
0	327382	975	601
0	327391	975	501
0	327400	975	501
0	327409	975	401
0	327418	975	401
0	327427	975	301
0	327436	975	301
0	327445	975	201
0	327454	975	201
0	327463	975	101
0	327472	975	101
0	327481	975	1
0	327632	976	901
0	327656	976	901
0	327668	976	801
0	327682	976	801
0	327697	976	701
0	327711	976	701
0	327722	976	601
0	327740	976	601
0	327751	976	501
0	327765	976	501
0	327780	976	401
0	327794	976	401
0	327805	976	301
0	327823	976	301
0	327834	976	201
0	327848	976	201
0	327863	976	101
0	327877	976	101
0	327897	976	901
0	327907	976	901
0	327916	976	801
0	327925	976	801
0	327934	976	701
0	327943	976	701
0	327952	976	601
0	327961	976	601
0	327970	976	501
0	327979	976	501
0	327988	976	401
0	327997	976	401
0	328006	976	301
0	328015	976	301
0	328024	976	201
0	328033	976	201
0	328042	976	101
0	328051	976	101
0	328060	976	1
0	328210	977	901
0	328233	977	901
0	328245	977	801
0	328259	977	801
0	328274	977	701
0	328288	977	701
0	328299	977	601
0	328317	977	601
0	328328	977	501
0	328342	977	501
0	328357	977	401
0	328371	977	401
0	328382	977	301
0	328400	977	301
0	328411	977	201
0	328425	977	201
0	328440	977	101
0	328454	977	101
0	328474	977	901
0	328484	977	901
0	328493	977	801
0	328502	977	801
0	328511	977	701
0	328520	977	701
0	328529	977	601
0	328538	977	601
0	328547	977	501
0	328556	977	501
0	328565	977	401
0	328574	977	401
0	328583	977	301
0	328592	977	301
0	328601	977	201
0	328610	977	201
0	328619	977	101
0	328628	977	101
0	328637	977	1
0	328757	978	901
0	328777	978	801
0	328795	978	701
0	328809	978	601
0	328827	978	501
0	328841	978	401
0	328859	978	301
0	328873	978	201
0	328891	978	101
0	328905	978	901
0	328919	978	801
0	328928	978	701
0	328937	978	601
0	328946	978	501
0	328955	978	401
0	328964	978	301
0	328973	978	201
0	328982	978	101
0	328991	978	901
0	328998	978	901
0	329004	978	801
0	329010	978	801
0	329016	978	701
0	329022	978	701
0	329028	978	601
0	329034	978	601
0	329040	978	501
0	329046	978	501
0	329052	978	401
0	329058	978	401
0	329064	978	301
0	329070	978	301
0	329076	978	201
0	329082	978	201
0	329088	978	101
0	329094	978	101
0	329100	978	1
0	329179	979	901
0	329199	979	801
0	329213	979	701
0	329230	979	601
0	329244	979	501
0	329261	979	401
0	329275	979	301
0	329292	979	201
0	329306	979	901
0	329323	979	801
0	329337	979	701
0	329350	979	601
0	329359	979	501
0	329368	979	401
0	329377	979	301
0	329386	979	201
0	329395	979	901
0	329404	979	801
0	329413	979	701
0	329420	979	601
0	329426	979	501
0	329432	979	401
0	329438	979	301
0	329444	979	201
0	329450	979	101
0	329456	979	1
0	329585	980	901
0	329612	980	801
0	329634	980	701
0	329656	980	601
0	329675	980	501
0	329697	980	401
0	329719	980	301
0	329738	980	201
0	329760	980	901
0	329782	980	801
0	329797	980	701
0	329814	980	601
0	329828	980	501
0	329845	980	401
0	329859	980	301
0	329876	980	201
0	329890	980	901
0	329907	980	801
0	329921	980	701
0	329938	980	601
0	329952	980	501
0	329969	980	401
0	329983	980	301
0	330000	980	201
0	330014	980	101
0	330031	980	1
0	330303	981	901
0	330330	981	801
0	330352	981	701
0	330371	981	601
0	330393	981	501
0	330415	981	401
0	330434	981	301
0	330456	981	903
0	330478	981	803
0	330497	981	703
0	330511	981	603
0	330520	981	503
0	330529	981	403
0	330538	981	201
0	330547	981	303
0	330556	981	203
0	330565	981	103
0	330574	981	902
0	330583	981	802
0	330592	981	702
0	330601	981	602
0	330610	981	502
0	330619	981	402
0	330628	981	302
0	330637	981	202
0	330646	981	102
0	330655	981	101
0	330664	981	901
0	330671	981	801
0	330677	981	701
0	330683	981	601
0	330689	981	501
0	330695	981	401
0	330701	981	301
0	330707	981	201
0	330713	981	901
0	330719	981	903
0	330725	981	801
0	330731	981	803
0	330737	981	701
0	330743	981	703
0	330749	981	601
0	330755	981	603
0	330761	981	501
0	330767	981	503
0	330773	981	401
0	330779	981	403
0	330785	981	301
0	330791	981	303
0	330797	981	201
0	330803	981	203
0	330809	981	101
0	330815	981	103
0	330821	981	1
0	330827	981	902
0	330833	981	802
0	330839	981	702
0	330845	981	602
0	330851	981	502
0	330857	981	402
0	330863	981	302
0	330869	981	202
0	330875	981	102
0	330881	981	901
0	330887	981	801
0	330893	981	701
0	330899	981	601
0	330905	981	501
0	330911	981	401
0	330917	981	301
0	330923	981	201
0	330929	981	101
0	331176	982	901
0	331198	982	914
0	331209	982	801
0	331223	982	814
0	331237	982	701
0	331251	982	714
0	331262	982	601
0	331279	982	614
0	331290	982	501
0	331304	982	915
0	331318	982	401
0	331332	982	414
0	331343	982	301
0	331360	982	314
0	331371	982	201
0	331385	982	214
0	331399	982	101
0	331413	982	913
0	331424	982	901
0	331437	982	813
0	331444	982	801
0	331453	982	713
0	331459	982	701
0	331468	982	613
0	331474	982	601
0	331483	982	514
0	331489	982	501
0	331498	982	513
0	331504	982	401
0	331513	982	413
0	331519	982	301
0	331528	982	313
0	331534	982	201
0	331543	982	213
0	331549	982	901
0	331558	982	912
0	331564	982	901
0	331573	982	812
0	331579	982	801
0	331588	982	712
0	331594	982	801
0	331603	982	612
0	331609	982	701
0	331618	982	512
0	331624	982	701
0	331633	982	412
0	331639	982	601
0	331648	982	312
0	331654	982	601
0	331663	982	212
0	331669	982	501
0	331678	982	911
0	331684	982	501
0	331693	982	811
0	331699	982	401
0	331706	982	711
0	331712	982	401
0	331718	982	611
0	331724	982	301
0	331730	982	511
0	331736	982	301
0	331742	982	411
0	331748	982	201
0	331754	982	311
0	331760	982	201
0	331766	982	211
0	331772	982	101
0	331778	982	910
0	331784	982	101
0	331790	982	810
0	331796	982	1
0	331802	982	710
0	331809	982	610
0	331815	982	510
0	331821	982	410
0	331827	982	310
0	331833	982	210
0	331839	982	909
0	331845	982	809
0	331851	982	709
0	331857	982	609
0	331863	982	509
0	331869	982	409
0	331875	982	309
0	331881	982	209
0	331887	982	917
0	331893	982	817
0	331899	982	916
0	331905	982	816
0	331911	982	815
0	331917	982	908
0	331923	982	808
0	331929	982	708
0	331935	982	608
0	331941	982	508
0	331947	982	408
0	331953	982	308
0	331959	982	208
0	331965	982	907
0	331971	982	807
0	331977	982	707
0	331983	982	607
0	331989	982	507
0	331995	982	407
0	332001	982	307
0	332007	982	207
0	332013	982	906
0	332019	982	806
0	332025	982	706
0	332031	982	606
0	332037	982	506
0	332043	982	406
0	332049	982	306
0	332055	982	206
0	332061	982	905
0	332067	982	805
0	332073	982	705
0	332079	982	605
0	332085	982	505
0	332091	982	405
0	332097	982	305
0	332103	982	205
0	332109	982	904
0	332115	982	804
0	332121	982	704
0	332127	982	604
0	332133	982	504
0	332139	982	404
0	332145	982	304
0	332151	982	204
0	332157	982	903
0	332163	982	803
0	332169	982	703
0	332175	982	603
0	332181	982	503
0	332187	982	403
0	332193	982	303
0	332199	982	203
0	332205	982	902
0	332211	982	802
0	332217	982	702
0	332223	982	602
0	332229	982	502
0	332235	982	402
0	332241	982	302
0	332247	982	202
0	332253	982	901
0	332259	982	801
0	332265	982	701
0	332271	982	601
0	332277	982	501
0	332283	982	401
0	332289	982	301
0	332295	982	201
0	332430	983	901
0	332452	983	901
0	332463	983	801
0	332477	983	801
0	332491	983	701
0	332505	983	701
0	332516	983	601
0	332533	983	601
0	332544	983	501
0	332558	983	501
0	332572	983	401
0	332586	983	401
0	332597	983	301
0	332614	983	301
0	332625	983	201
0	332639	983	201
0	332653	983	101
0	332673	983	901
0	332687	983	801
0	332696	983	701
0	332705	983	601
0	332714	983	501
0	332723	983	401
0	332732	983	301
0	332741	983	201
0	332750	983	901
0	332759	983	901
0	332768	983	801
0	332777	983	801
0	332786	983	701
0	332795	983	701
0	332804	983	601
0	332813	983	601
0	332822	983	501
0	332831	983	501
0	332840	983	401
0	332847	983	401
0	332853	983	301
0	332859	983	301
0	332865	983	201
0	332871	983	201
0	332877	983	101
0	332883	983	101
0	332889	983	1
0	333025	984	901
0	333052	984	801
0	333074	984	701
0	333093	984	601
0	333115	984	501
0	333137	984	401
0	333156	984	301
0	333178	984	201
0	333200	984	101
0	333219	984	901
0	333233	984	801
0	333242	984	701
0	333251	984	601
0	333260	984	501
0	333269	984	401
0	333278	984	301
0	333287	984	201
0	333296	984	901
0	333305	984	901
0	333314	984	801
0	333323	984	801
0	333332	984	701
0	333341	984	701
0	333350	984	601
0	333359	984	601
0	333368	984	501
0	333377	984	501
0	333386	984	401
0	333393	984	401
0	333399	984	301
0	333405	984	301
0	333411	984	201
0	333417	984	201
0	333423	984	101
0	333429	984	101
0	333435	984	1
0	333569	985	901
0	333595	985	801
0	333614	985	701
0	333635	985	601
0	333656	985	501
0	333675	985	401
0	333696	985	301
0	333717	985	201
0	333736	985	101
0	333757	985	901
0	333770	985	801
0	333779	985	701
0	333788	985	601
0	333797	985	501
0	333806	985	401
0	333815	985	301
0	333824	985	201
0	333833	985	901
0	333842	985	901
0	333851	985	801
0	333858	985	801
0	333864	985	701
0	333870	985	701
0	333876	985	601
0	333882	985	601
0	333888	985	501
0	333894	985	501
0	333900	985	401
0	333906	985	401
0	333912	985	301
0	333918	985	301
0	333924	985	201
0	333930	985	201
0	333936	985	101
0	333942	985	101
0	333948	985	1
0	334060	986	901
0	334085	986	801
0	334104	986	701
0	334125	986	601
0	334146	986	501
0	334165	986	401
0	334186	986	301
0	334207	986	901
0	334226	986	901
0	334247	986	801
0	334260	986	801
0	334269	986	701
0	334278	986	701
0	334287	986	601
0	334296	986	601
0	334305	986	501
0	334314	986	501
0	334323	986	401
0	334332	986	401
0	334341	986	301
0	334348	986	301
0	334354	986	201
0	334360	986	201
0	334366	986	101
0	334372	986	101
0	334378	986	1
0	334563	987	901
0	334589	987	801
0	334610	987	701
0	334629	987	601
0	334650	987	501
0	334671	987	401
0	334690	987	301
0	334711	987	901
0	334732	987	901
0	334751	987	801
0	334764	987	801
0	334773	987	701
0	334782	987	701
0	334791	987	601
0	334800	987	601
0	334809	987	501
0	334818	987	501
0	334827	987	401
0	334836	987	401
0	334845	987	301
0	334854	987	301
0	334863	987	201
0	334872	987	201
0	334881	987	101
0	334890	987	101
0	334899	987	1
0	335511	988	901
0	335535	988	801
0	335554	988	920
0	335575	988	820
0	335596	988	720
0	335615	988	919
0	335636	988	701
0	335657	988	819
0	335676	988	601
0	335693	988	719
0	335703	988	918
0	335712	988	818
0	335721	988	718
0	335730	988	917
0	335739	988	817
0	335748	988	717
0	335757	988	916
0	335766	988	816
0	335775	988	716
0	335784	988	915
0	335793	988	815
0	335802	988	715
0	335811	988	914
0	335820	988	814
0	335829	988	714
0	335838	988	913
0	335847	988	813
0	335854	988	713
0	335860	988	912
0	335866	988	812
0	335872	988	712
0	335878	988	911
0	335884	988	811
0	335890	988	711
0	335896	988	910
0	335902	988	810
0	335908	988	710
0	335914	988	909
0	335920	988	809
0	335926	988	709
0	335932	988	908
0	335938	988	808
0	335944	988	708
0	335950	988	907
0	335956	988	807
0	335962	988	707
0	335968	988	906
0	335974	988	806
0	335980	988	706
0	335986	988	905
0	335992	988	805
0	335998	988	705
0	336004	988	904
0	336010	988	804
0	336016	988	704
0	336022	988	903
0	336028	988	803
0	336034	988	703
0	336040	988	902
0	336046	988	802
0	336052	988	702
0	336058	988	501
0	336064	988	401
0	336070	988	301
0	336076	988	603
0	336082	988	503
0	336088	988	403
0	336094	988	303
0	336100	988	602
0	336106	988	502
0	336112	988	402
0	336118	988	302
0	336124	988	201
0	336130	988	903
0	336136	988	803
0	336142	988	703
0	336148	988	603
0	336154	988	503
0	336160	988	403
0	336166	988	303
0	336172	988	902
0	336178	988	802
0	336184	988	702
0	336190	988	602
0	336196	988	502
0	336202	988	402
0	336208	988	302
0	336214	988	920
0	336220	988	820
0	336226	988	720
0	336232	988	919
0	336238	988	819
0	336244	988	719
0	336250	988	918
0	336256	988	818
0	336262	988	718
0	336268	988	917
0	336274	988	817
0	336280	988	717
0	336286	988	916
0	336292	988	816
0	336298	988	716
0	336304	988	915
0	336310	988	815
0	336316	988	715
0	336322	988	914
0	336328	988	814
0	336334	988	714
0	336340	988	913
0	336346	988	813
0	336352	988	713
0	336358	988	912
0	336364	988	812
0	336370	988	712
0	336376	988	911
0	336382	988	811
0	336388	988	711
0	336394	988	910
0	336400	988	810
0	336406	988	710
0	336412	988	909
0	336418	988	809
0	336424	988	709
0	336430	988	908
0	336436	988	808
0	336442	988	708
0	336448	988	907
0	336454	988	807
0	336460	988	707
0	336466	988	906
0	336472	988	806
0	336478	988	706
0	336484	988	905
0	336490	988	805
0	336496	988	705
0	336502	988	904
0	336508	988	804
0	336514	988	704
0	336520	988	901
0	336526	988	801
0	336532	988	701
0	336538	988	601
0	336544	988	501
0	336550	988	401
0	336556	988	301
0	336562	988	201
0	336568	988	901
0	336574	988	901
0	336580	988	801
0	336586	988	801
0	336592	988	701
0	336598	988	701
0	336604	988	601
0	336610	988	601
0	336616	988	501
0	336622	988	501
0	336628	988	401
0	336634	988	401
0	336640	988	301
0	336646	988	301
0	336652	988	201
0	336658	988	201
0	336664	988	101
0	336670	988	101
0	336676	988	1
0	336808	989	901
0	336832	989	801
0	336853	989	701
0	336874	989	601
0	336893	989	501
0	336910	989	401
0	336926	989	301
0	336940	989	201
0	336956	989	901
0	336970	989	801
0	336986	989	701
0	336996	989	601
0	337005	989	501
0	337014	989	401
0	337023	989	301
0	337032	989	201
0	337041	989	901
0	337050	989	901
0	337059	989	801
0	337068	989	801
0	337077	989	701
0	337086	989	701
0	337095	989	601
0	337104	989	601
0	337111	989	501
0	337117	989	501
0	337123	989	401
0	337129	989	401
0	337135	989	301
0	337141	989	301
0	337147	989	201
0	337153	989	201
0	337159	989	101
0	337165	989	101
0	337171	989	1
0	337305	990	901
0	337326	990	801
0	337345	990	701
0	337366	990	601
0	337383	990	501
0	337397	990	401
0	337413	990	301
0	337427	990	201
0	337443	990	101
0	337457	990	901
0	337469	990	801
0	337478	990	701
0	337487	990	601
0	337496	990	501
0	337505	990	401
0	337514	990	301
0	337523	990	201
0	337532	990	101
0	337541	990	901
0	337550	990	901
0	337559	990	801
0	337568	990	801
0	337577	990	701
0	337584	990	701
0	337590	990	601
0	337596	990	601
0	337602	990	501
0	337608	990	401
0	337614	990	301
0	337620	990	201
0	337626	990	101
0	337632	990	1
0	337753	991	901
0	337777	991	801
0	337798	991	701
0	337819	991	601
0	337838	991	501
0	337855	991	401
0	337871	991	301
0	337885	991	201
0	337901	991	101
0	337915	991	901
0	337927	991	801
0	337936	991	701
0	337945	991	601
0	337954	991	501
0	337963	991	401
0	337972	991	301
0	337981	991	201
0	337990	991	101
0	337999	991	901
0	338008	991	901
0	338017	991	801
0	338026	991	801
0	338035	991	701
0	338044	991	701
0	338051	991	601
0	338057	991	601
0	338063	991	501
0	338069	991	401
0	338075	991	301
0	338081	991	201
0	338087	991	101
0	338093	991	1
0	338221	992	901
0	338245	992	801
0	338266	992	701
0	338287	992	601
0	338306	992	501
0	338323	992	401
0	338339	992	301
0	338353	992	201
0	338369	992	101
0	338383	992	901
0	338395	992	801
0	338404	992	701
0	338413	992	601
0	338422	992	501
0	338431	992	401
0	338440	992	301
0	338449	992	201
0	338458	992	101
0	338467	992	901
0	338476	992	901
0	338485	992	801
0	338494	992	801
0	338503	992	701
0	338512	992	701
0	338519	992	601
0	338525	992	601
0	338531	992	501
0	338537	992	401
0	338543	992	301
0	338549	992	201
0	338555	992	101
0	338561	992	1
0	338677	993	901
0	338701	993	801
0	338722	993	701
0	338739	993	601
0	338753	993	501
0	338769	993	401
0	338783	993	301
0	338799	993	201
0	338813	993	901
0	338825	993	801
0	338834	993	701
0	338843	993	601
0	338852	993	501
0	338861	993	401
0	338870	993	301
0	338879	993	201
0	338888	993	101
0	338897	993	901
0	338906	993	901
0	338913	993	801
0	338919	993	801
0	338925	993	701
0	338931	993	701
0	338937	993	601
0	338943	993	601
0	338949	993	501
0	338955	993	401
0	338961	993	301
0	338967	993	201
0	338973	993	101
0	338979	993	1
0	339082	994	901
0	339097	994	701
0	339112	994	601
0	339127	994	501
0	339142	994	401
0	339157	994	301
0	339172	994	201
0	339187	994	901
0	339202	994	701
0	339213	994	601
0	339222	994	501
0	339231	994	401
0	339240	994	301
0	339249	994	201
0	339258	994	101
0	339267	994	701
0	339274	994	701
0	339280	994	601
0	339286	994	601
0	339292	994	501
0	339298	994	401
0	339304	994	301
0	339310	994	201
0	339316	994	101
0	339322	994	1
0	339419	995	901
0	339434	995	701
0	339449	995	601
0	339463	995	501
0	339478	995	401
0	339492	995	301
0	339507	995	201
0	339521	995	901
0	339536	995	701
0	339546	995	601
0	339555	995	501
0	339564	995	401
0	339573	995	301
0	339582	995	201
0	339591	995	101
0	339600	995	701
0	339607	995	601
0	339613	995	501
0	339619	995	401
0	339625	995	301
0	339631	995	201
0	339637	995	101
0	339643	995	1
0	339733	996	901
0	339747	996	701
0	339762	996	601
0	339776	996	501
0	339791	996	401
0	339805	996	301
0	339820	996	201
0	339834	996	901
0	339849	996	701
0	339859	996	601
0	339868	996	501
0	339877	996	401
0	339886	996	301
0	339895	996	201
0	339904	996	101
0	339913	996	701
0	339920	996	601
0	339926	996	501
0	339932	996	401
0	339938	996	301
0	339944	996	201
0	339950	996	101
0	339956	996	1
0	340099	997	901
0	340122	997	701
0	340141	997	601
0	340161	997	501
0	340181	997	401
0	340200	997	301
0	340220	997	201
0	340240	997	901
0	340259	997	701
0	340279	997	601
0	340299	997	501
0	340314	997	401
0	340329	997	301
0	340343	997	201
0	340358	997	101
0	340372	997	701
0	340387	997	601
0	340401	997	501
0	340412	997	401
0	340421	997	301
0	340430	997	201
0	340439	997	101
0	340448	997	1
0	340688	998	901
0	340711	998	905
0	340730	998	805
0	340750	998	904
0	340762	998	804
0	340771	998	903
0	340780	998	803
0	340789	998	902
0	340798	998	802
0	340807	998	801
0	340816	998	701
0	340823	998	601
0	340829	998	501
0	340835	998	401
0	340841	998	301
0	340847	998	201
0	340853	998	901
0	340859	998	905
0	340865	998	805
0	340871	998	904
0	340877	998	804
0	340883	998	903
0	340889	998	803
0	340895	998	902
0	340901	998	802
0	340907	998	801
0	340913	998	701
0	340919	998	601
0	340925	998	501
0	340931	998	401
0	340937	998	301
0	340943	998	201
0	340949	998	101
0	340955	998	905
0	340961	998	905
0	340967	998	805
0	340973	998	805
0	340979	998	904
0	340985	998	904
0	340991	998	804
0	340997	998	804
0	341003	998	903
0	341009	998	903
0	341015	998	803
0	341021	998	803
0	341027	998	902
0	341033	998	902
0	341039	998	802
0	341045	998	802
0	341051	998	901
0	341057	998	901
0	341063	998	801
0	341069	998	801
0	341075	998	701
0	341081	998	601
0	341087	998	501
0	341093	998	401
0	341099	998	301
0	341105	998	201
0	341111	998	101
0	341117	998	1
0	341178	999	901
0	341198	999	201
0	341218	999	801
0	341230	999	101
0	341239	999	901
0	341248	999	201
0	341257	999	801
0	341266	999	101
0	341275	999	201
0	341284	999	1


