version 2
run General-0-20250114-17:51:02-91374
attr configname General
attr datetime 20250114-17:51:02
attr experiment General
attr inifile shaw.ini
attr iterationvars ""
attr iterationvarsf ""
attr measurement ""
attr network src.dtnsim
attr processid 91374
attr repetition 0
attr replication #0
attr resultdir results
attr runnumber 0
attr seedset 0
param dtnsim.central.contactsFile "\"contactPlan/Contacts.txt\""
param dtnsim.central.contactsFile_A "\"contactPlan/Contacts_A.txt\""
param dtnsim.central.contactsFile_B "\"contactPlan/Contacts_B.txt\""
param dtnsim.central.contactIdsToDelete_from_celestialA "\"2 6 19 24 30 33 36 44 52 61 63 65 69 72 84 97 106 117 135 145 155 157 158 161 180 186 196 204 207 210 215 218 222 233 237 242 243 249 250 273 275 278 282 288 292 293 294\""
param dtnsim.central.contactIdsToDelete_from_celestialB "\"85 235 277\""
param dtnsim.central.celestialA_nodes "\"1 2 3\""
param dtnsim.central.celestialB_nodes "\"4 5 6\""
param dtnsim.central.locallyfaultsAware true
param dtnsim.central.mode_two_celestial true
param dtnsim.nodesNumber 6
param dtnsim.node[1].icon "\"receiverdish\""
param dtnsim.node[2..5].icon "\"satellite\""
param dtnsim.node[6].icon "\"receiverdish\""
param dtnsim.node[*].dtn.routing "\"cgrModel350\""
param dtnsim.node[*].dtn.routingType "\"routeListType:allPaths-firstEnding,volumeAware:allContacts,extensionBlock:on,contactPlan:global\""
param dtnsim.node[1].app.enable true
param dtnsim.node[*].app.custodyTransfer true
param dtnsim.node[1].app.bundlesNumber "\"3600\""
param dtnsim.node[1].app.start "\"0\""
param dtnsim.node[1].app.destinationEid "\"6\""
param dtnsim.node[1].app.size "\"1500\""
param dtnsim.node[1].app.interval 1

scalar dtnsim.node[0].app appBundleReceivedDelayvec:timeavg -nan
attr interpolationmode none
attr source appBundleReceivedDelay
attr title "appBundleReceivedDelayvec, timeavg"
scalar dtnsim.node[0].app appBundleReceivedDelayvec:mean -nan
attr interpolationmode none
attr source appBundleReceivedDelay
attr title "appBundleReceivedDelayvec, mean"
scalar dtnsim.node[0].app appBundleReceivedDelayvec:max nan
attr interpolationmode none
attr source appBundleReceivedDelay
attr title "appBundleReceivedDelayvec, max"
scalar dtnsim.node[0].app appBundleReceivedDelayvec:min nan
attr interpolationmode none
attr source appBundleReceivedDelay
attr title "appBundleReceivedDelayvec, min"
scalar dtnsim.node[1].app appBundleReceivedDelayvec:timeavg -nan
attr interpolationmode none
attr source appBundleReceivedDelay
attr title "appBundleReceivedDelayvec, timeavg"
scalar dtnsim.node[1].app appBundleReceivedDelayvec:mean -nan
attr interpolationmode none
attr source appBundleReceivedDelay
attr title "appBundleReceivedDelayvec, mean"
scalar dtnsim.node[1].app appBundleReceivedDelayvec:max nan
attr interpolationmode none
attr source appBundleReceivedDelay
attr title "appBundleReceivedDelayvec, max"
scalar dtnsim.node[1].app appBundleReceivedDelayvec:min nan
attr interpolationmode none
attr source appBundleReceivedDelay
attr title "appBundleReceivedDelayvec, min"
scalar dtnsim.node[2].app appBundleReceivedDelayvec:timeavg -nan
attr interpolationmode none
attr source appBundleReceivedDelay
attr title "appBundleReceivedDelayvec, timeavg"
scalar dtnsim.node[2].app appBundleReceivedDelayvec:mean -nan
attr interpolationmode none
attr source appBundleReceivedDelay
attr title "appBundleReceivedDelayvec, mean"
scalar dtnsim.node[2].app appBundleReceivedDelayvec:max nan
attr interpolationmode none
attr source appBundleReceivedDelay
attr title "appBundleReceivedDelayvec, max"
scalar dtnsim.node[2].app appBundleReceivedDelayvec:min nan
attr interpolationmode none
attr source appBundleReceivedDelay
attr title "appBundleReceivedDelayvec, min"
scalar dtnsim.node[3].app appBundleReceivedDelayvec:timeavg -nan
attr interpolationmode none
attr source appBundleReceivedDelay
attr title "appBundleReceivedDelayvec, timeavg"
scalar dtnsim.node[3].app appBundleReceivedDelayvec:mean -nan
attr interpolationmode none
attr source appBundleReceivedDelay
attr title "appBundleReceivedDelayvec, mean"
scalar dtnsim.node[3].app appBundleReceivedDelayvec:max nan
attr interpolationmode none
attr source appBundleReceivedDelay
attr title "appBundleReceivedDelayvec, max"
scalar dtnsim.node[3].app appBundleReceivedDelayvec:min nan
attr interpolationmode none
attr source appBundleReceivedDelay
attr title "appBundleReceivedDelayvec, min"
scalar dtnsim.node[4].app appBundleReceivedDelayvec:timeavg -nan
attr interpolationmode none
attr source appBundleReceivedDelay
attr title "appBundleReceivedDelayvec, timeavg"
scalar dtnsim.node[4].app appBundleReceivedDelayvec:mean -nan
attr interpolationmode none
attr source appBundleReceivedDelay
attr title "appBundleReceivedDelayvec, mean"
scalar dtnsim.node[4].app appBundleReceivedDelayvec:max nan
attr interpolationmode none
attr source appBundleReceivedDelay
attr title "appBundleReceivedDelayvec, max"
scalar dtnsim.node[4].app appBundleReceivedDelayvec:min nan
attr interpolationmode none
attr source appBundleReceivedDelay
attr title "appBundleReceivedDelayvec, min"
scalar dtnsim.node[5].app appBundleReceivedDelayvec:timeavg -nan
attr interpolationmode none
attr source appBundleReceivedDelay
attr title "appBundleReceivedDelayvec, timeavg"
scalar dtnsim.node[5].app appBundleReceivedDelayvec:mean -nan
attr interpolationmode none
attr source appBundleReceivedDelay
attr title "appBundleReceivedDelayvec, mean"
scalar dtnsim.node[5].app appBundleReceivedDelayvec:max nan
attr interpolationmode none
attr source appBundleReceivedDelay
attr title "appBundleReceivedDelayvec, max"
scalar dtnsim.node[5].app appBundleReceivedDelayvec:min nan
attr interpolationmode none
attr source appBundleReceivedDelay
attr title "appBundleReceivedDelayvec, min"
scalar dtnsim.node[6].app appBundleReceivedDelayvec:timeavg 440.92080398314
attr interpolationmode none
attr source appBundleReceivedDelay
attr title "appBundleReceivedDelayvec, timeavg"
scalar dtnsim.node[6].app appBundleReceivedDelayvec:mean 891.65314359295
attr interpolationmode none
attr source appBundleReceivedDelay
attr title "appBundleReceivedDelayvec, mean"
scalar dtnsim.node[6].app appBundleReceivedDelayvec:max 1760.7
attr interpolationmode none
attr source appBundleReceivedDelay
attr title "appBundleReceivedDelayvec, max"
scalar dtnsim.node[6].app appBundleReceivedDelayvec:min 1.3
attr interpolationmode none
attr source appBundleReceivedDelay
attr title "appBundleReceivedDelayvec, min"


