version 2
run General-0-20250114-17:51:02-91374
attr configname General
attr datetime 20250114-17:51:02
attr experiment General
attr inifile shaw.ini
attr iterationvars ""
attr iterationvarsf ""
attr measurement ""
attr network src.dtnsim
attr processid 91374
attr repetition 0
attr replication #0
attr resultdir results
attr runnumber 0
attr seedset 0
param dtnsim.central.contactsFile "\"contactPlan/Contacts.txt\""
param dtnsim.central.contactsFile_A "\"contactPlan/Contacts_A.txt\""
param dtnsim.central.contactsFile_B "\"contactPlan/Contacts_B.txt\""
param dtnsim.central.contactIdsToDelete_from_celestialA "\"2 6 19 24 30 33 36 44 52 61 63 65 69 72 84 97 106 117 135 145 155 157 158 161 180 186 196 204 207 210 215 218 222 233 237 242 243 249 250 273 275 278 282 288 292 293 294\""
param dtnsim.central.contactIdsToDelete_from_celestialB "\"85 235 277\""
param dtnsim.central.celestialA_nodes "\"1 2 3\""
param dtnsim.central.celestialB_nodes "\"4 5 6\""
param dtnsim.central.locallyfaultsAware true
param dtnsim.central.mode_two_celestial true
param dtnsim.nodesNumber 6
param dtnsim.node[1].icon "\"receiverdish\""
param dtnsim.node[2..5].icon "\"satellite\""
param dtnsim.node[6].icon "\"receiverdish\""
param dtnsim.node[*].dtn.routing "\"cgrModel350\""
param dtnsim.node[*].dtn.routingType "\"routeListType:allPaths-firstEnding,volumeAware:allContacts,extensionBlock:on,contactPlan:global\""
param dtnsim.node[1].app.enable true
param dtnsim.node[*].app.custodyTransfer true
param dtnsim.node[1].app.bundlesNumber "\"3600\""
param dtnsim.node[1].app.start "\"0\""
param dtnsim.node[1].app.destinationEid "\"6\""
param dtnsim.node[1].app.size "\"1500\""
param dtnsim.node[1].app.interval 1

vector 0 dtnsim.node[6].app appBundleReceivedDelayvec:vector ETV
attr interpolationmode none
attr source appBundleReceivedDelay
attr title "appBundleReceivedDelayvec, vector"
0	1185	65.1	65.1
0	1186	65.1	64.1
0	1187	65.1	63.1
0	1188	65.1	62.1
0	1189	65.1	61.1
0	1190	65.1	60.1
0	1191	65.1	59.1
0	1192	65.1	58.1
0	1193	65.1	57.1
0	1194	65.1	56.1
0	1195	65.1	55.1
0	1196	65.1	54.1
0	1197	65.1	53.1
0	1198	65.1	52.1
0	1199	65.1	51.1
0	1200	65.1	50.1
0	1201	65.1	49.1
0	1202	65.1	48.1
0	1203	65.1	47.1
0	1204	65.1	46.1
0	1205	65.1	45.1
0	1206	65.1	44.1
0	1207	65.1	43.1
0	1208	65.1	42.1
0	1209	65.1	41.1
0	1210	65.1	40.1
0	1211	65.1	39.1
0	1212	65.1	38.1
0	1213	65.1	37.1
0	1214	65.1	36.1
0	1215	65.1	35.1
0	1216	65.1	34.1
0	1217	65.1	33.1
0	1218	65.1	32.1
0	1219	65.1	31.1
0	1220	65.1	30.1
0	1221	65.1	29.1
0	1222	65.1	28.1
0	1223	65.1	27.1
0	1224	65.1	26.1
0	1225	65.1	25.1
0	1226	65.1	24.1
0	1227	65.1	23.1
0	1228	65.1	22.1
0	1229	65.1	21.1
0	1230	65.1	20.1
0	1231	65.1	19.1
0	1232	65.1	18.1
0	1233	65.1	17.1
0	1234	65.1	16.1
0	1235	65.1	15.1
0	1236	65.1	14.1
0	1237	65.1	13.1
0	1238	65.1	12.1
0	1239	65.1	11.1
0	1240	65.1	10.1
0	1241	65.1	9.1
0	1242	65.1	8.1
0	1243	65.1	7.1
0	1244	65.1	6.1
0	1245	65.1	5.1
0	1246	65.1	4.1
0	1247	65.1	3.1
0	1248	65.1	2.1
0	1268	65.5	1.5
0	1296	66.5	1.5
0	1324	67.5	1.5
0	1352	68.5	1.5
0	1380	69.5	1.5
0	1408	70.5	1.5
0	1436	71.5	1.5
0	1464	72.5	1.5
0	1492	73.5	1.5
0	1520	74.5	1.5
0	1548	75.5	1.5
0	1576	76.5	1.5
0	1604	77.5	1.5
0	1635	78.5	1.5
0	1664	79.5	1.5
0	1696	80.5	1.5
0	1728	81.5	1.5
0	1760	82.5	1.5
0	1791	83.5	1.5
0	1822	84.5	1.5
0	1855	85.5	1.5
0	1887	86.5	1.5
0	1919	87.5	1.5
0	1951	88.5	1.5
0	1983	89.5	1.5
0	2015	90.5	1.5
0	2047	91.5	1.5
0	2079	92.5	1.5
0	2111	93.5	1.5
0	2143	94.5	1.5
0	2175	95.5	1.5
0	2207	96.5	1.5
0	2239	97.5	1.5
0	2271	98.5	1.5
0	2303	99.5	1.5
0	2338	100.5	1.5
0	2371	101.5	1.5
0	2404	102.5	1.5
0	2437	103.5	1.5
0	2470	104.5	1.5
0	2506	105.5	1.5
0	2539	106.5	1.5
0	2575	107.5	1.5
0	2645	109.5	2.5
0	2646	109.5	1.5
0	2683	110.5	1.5
0	2719	111.5	1.5
0	2754	112.5	1.5
0	2789	113.5	1.5
0	2824	114.5	1.5
0	2858	115.5	1.5
0	2892	116.5	1.5
0	2926	117.5	1.5
0	2960	118.5	1.5
0	2994	119.5	1.5
0	3028	120.5	1.5
0	3062	121.5	1.5
0	3096	122.5	1.5
0	3130	123.5	1.5
0	3163	124.5	1.5
0	3196	125.5	1.5
0	3229	126.5	1.5
0	3262	127.5	1.5
0	3295	128.5	1.5
0	3328	129.5	1.5
0	3360	130.5	1.5
0	3392	131.5	1.5
0	3421	132.5	1.5
0	3484	134.5	2.5
0	3485	134.5	1.5
0	3516	135.5	1.5
0	3546	136.5	1.5
0	3577	137.5	1.5
0	3607	138.5	1.5
0	3637	139.5	1.5
0	3668	140.5	1.5
0	3701	141.5	1.5
0	3732	142.5	1.5
0	3766	143.5	1.5
0	3798	144.5	1.5
0	3830	145.5	1.5
0	3862	146.5	1.5
0	3893	147.5	1.5
0	3924	148.5	1.5
0	3955	149.5	1.5
0	3986	150.5	1.5
0	4017	151.5	1.5
0	4048	152.5	1.5
0	4079	153.5	1.5
0	4110	154.5	1.5
0	4141	155.5	1.5
0	4172	156.5	1.5
0	4204	157.5	1.5
0	4235	158.5	1.5
0	5046	159.5	1.5
0	5930	160.5	160.5
0	5931	160.5	159.5
0	5932	160.5	158.5
0	5933	160.5	157.5
0	5934	160.5	156.5
0	5935	160.5	155.5
0	5936	160.5	154.5
0	5937	160.5	153.5
0	5938	160.5	152.5
0	5939	160.5	151.5
0	5940	160.5	150.5
0	5941	160.5	149.5
0	5942	160.5	148.5
0	5943	160.5	147.5
0	5944	160.5	146.5
0	5945	160.5	145.5
0	5946	160.5	144.5
0	5947	160.5	143.5
0	5948	160.5	142.5
0	5949	160.5	141.5
0	5950	160.5	140.5
0	5951	160.5	139.5
0	5952	160.5	138.5
0	5953	160.5	137.5
0	5954	160.5	136.5
0	5955	160.5	135.5
0	5956	160.5	134.5
0	5957	160.5	133.5
0	5958	160.5	132.5
0	5959	160.5	131.5
0	5960	160.5	130.5
0	5961	160.5	129.5
0	5962	160.5	128.5
0	5963	160.5	127.5
0	5964	160.5	126.5
0	5965	160.5	125.5
0	5966	160.5	124.5
0	5967	160.5	123.5
0	5968	160.5	122.5
0	5969	160.5	121.5
0	5970	160.5	120.5
0	5971	160.5	119.5
0	5972	160.5	118.5
0	5973	160.5	117.5
0	5974	160.5	116.5
0	5975	160.5	115.5
0	5976	160.5	114.5
0	5977	160.5	113.5
0	5978	160.5	112.5
0	5979	160.5	111.5
0	5980	160.5	110.5
0	5981	160.5	109.5
0	5982	160.5	108.5
0	5983	160.5	107.5
0	5984	160.5	106.5
0	5985	160.5	105.5
0	5986	160.5	104.5
0	5987	160.5	103.5
0	5988	160.5	102.5
0	5989	160.5	101.5
0	5990	160.5	160.5
0	5991	160.5	159.5
0	5992	160.5	158.5
0	5993	160.5	157.5
0	5994	160.5	156.5
0	5995	160.5	155.5
0	5996	160.5	154.5
0	5997	160.5	153.5
0	5998	160.5	152.5
0	5999	160.5	151.5
0	6000	160.5	150.5
0	6001	160.5	149.5
0	6002	160.5	148.5
0	6003	160.5	147.5
0	6004	160.5	146.5
0	6005	160.5	145.5
0	6006	160.5	144.5
0	6007	160.5	143.5
0	6008	160.5	142.5
0	6009	160.5	141.5
0	6010	160.5	140.5
0	6011	160.5	139.5
0	6012	160.5	138.5
0	6013	160.5	137.5
0	6014	160.5	136.5
0	6015	160.5	135.5
0	6016	160.5	134.5
0	6017	160.5	133.5
0	6018	160.5	132.5
0	6019	160.5	131.5
0	6020	160.5	130.5
0	6021	160.5	129.5
0	6022	160.5	128.5
0	6023	160.5	127.5
0	6024	160.5	126.5
0	6025	160.5	125.5
0	6026	160.5	124.5
0	6027	160.5	123.5
0	6028	160.5	122.5
0	6029	160.5	121.5
0	6030	160.5	120.5
0	6031	160.5	119.5
0	6032	160.5	118.5
0	6033	160.5	117.5
0	6034	160.5	116.5
0	6035	160.5	115.5
0	6036	160.5	114.5
0	6037	160.5	113.5
0	6038	160.5	112.5
0	6039	160.5	111.5
0	6040	160.5	110.5
0	6041	160.5	109.5
0	6042	160.5	108.5
0	6043	160.5	107.5
0	6044	160.5	106.5
0	6045	160.5	105.5
0	6046	160.5	104.5
0	6047	160.5	103.5
0	6048	160.5	102.5
0	6049	160.5	101.5
0	6050	160.5	1.5
0	6107	161.5	101.5
0	6108	161.5	101.5
0	6109	161.5	1.5
0	6167	162.5	101.5
0	6168	162.5	101.5
0	6169	162.5	1.5
0	6226	163.5	101.5
0	6227	163.5	101.5
0	6228	163.5	1.5
0	6285	164.5	101.5
0	6286	164.5	101.5
0	6287	164.5	1.5
0	6689	165.1	165.1
0	6690	165.1	164.1
0	6691	165.1	163.1
0	6692	165.1	162.1
0	6693	165.1	161.1
0	6694	165.1	160.1
0	6695	165.1	159.1
0	6696	165.1	158.1
0	6697	165.1	157.1
0	6698	165.1	156.1
0	6699	165.1	155.1
0	6700	165.1	154.1
0	6701	165.1	153.1
0	6702	165.1	152.1
0	6703	165.1	151.1
0	6704	165.1	150.1
0	6705	165.1	149.1
0	6706	165.1	148.1
0	6707	165.1	147.1
0	6708	165.1	146.1
0	6709	165.1	145.1
0	6710	165.1	144.1
0	6711	165.1	143.1
0	6712	165.1	142.1
0	6713	165.1	141.1
0	6714	165.1	140.1
0	6715	165.1	139.1
0	6716	165.1	138.1
0	6717	165.1	137.1
0	6718	165.1	136.1
0	6719	165.1	135.1
0	6720	165.1	134.1
0	6721	165.1	133.1
0	6722	165.1	132.1
0	6723	165.1	131.1
0	6724	165.1	130.1
0	6725	165.1	129.1
0	6726	165.1	128.1
0	6727	165.1	127.1
0	6728	165.1	126.1
0	6729	165.1	125.1
0	6730	165.1	124.1
0	6731	165.1	123.1
0	6732	165.1	122.1
0	6733	165.1	121.1
0	6734	165.1	120.1
0	6735	165.1	119.1
0	6736	165.1	118.1
0	6737	165.1	117.1
0	6738	165.1	116.1
0	6739	165.1	115.1
0	6740	165.1	114.1
0	6741	165.1	113.1
0	6742	165.1	112.1
0	6743	165.1	111.1
0	6744	165.1	110.1
0	6745	165.1	109.1
0	6746	165.1	108.1
0	6747	165.1	107.1
0	6748	165.1	106.1
0	6749	165.1	105.1
0	6750	165.1	104.1
0	6751	165.1	103.1
0	6752	165.1	102.1
0	6799	165.5	101.5
0	6800	165.5	101.5
0	6801	165.5	101.5
0	6802	165.5	1.5
0	6868	166.5	101.5
0	6869	166.5	101.5
0	6870	166.5	101.5
0	6871	166.5	1.5
0	6937	167.5	101.5
0	6938	167.5	101.5
0	6939	167.5	101.5
0	6940	167.5	1.5
0	7004	168.5	101.5
0	7005	168.5	101.5
0	7006	168.5	101.5
0	7007	168.5	1.5
0	7073	169.5	101.5
0	7074	169.5	101.5
0	7075	169.5	101.5
0	7076	169.5	1.5
0	7142	170.5	101.5
0	7143	170.5	101.5
0	7144	170.5	101.5
0	7145	170.5	1.5
0	7212	171.5	101.5
0	7213	171.5	101.5
0	7214	171.5	101.5
0	7215	171.5	1.5
0	7283	172.5	101.5
0	7284	172.5	101.5
0	7285	172.5	101.5
0	7286	172.5	1.5
0	7352	173.5	101.5
0	7353	173.5	101.5
0	7354	173.5	101.5
0	7355	173.5	1.5
0	7421	174.5	101.5
0	7422	174.5	101.5
0	7423	174.5	101.5
0	7424	174.5	1.5
0	7474	175.5	101.5
0	7475	175.5	101.5
0	7476	175.5	101.5
0	7477	175.5	1.5
0	7510	176.5	101.5
0	7511	176.5	101.5
0	7543	177.5	101.5
0	7544	177.5	101.5
0	7576	178.5	101.5
0	7577	178.5	101.5
0	7609	179.5	101.5
0	7610	179.5	101.5
0	7642	180.5	101.5
0	7643	180.5	101.5
0	7675	181.5	101.5
0	7676	181.5	101.5
0	7708	182.5	101.5
0	7709	182.5	101.5
0	7741	183.5	101.5
0	7742	183.5	101.5
0	7774	184.5	101.5
0	7775	184.5	101.5
0	7988	185.5	101.5
0	7989	185.5	101.5
0	8195	186.5	101.5
0	8196	186.5	101.5
0	8197	186.5	111.5
0	8198	186.5	11.5
0	8199	186.5	110.5
0	8200	186.5	10.5
0	8201	186.5	109.5
0	8202	186.5	9.5
0	8203	186.5	108.5
0	8204	186.5	8.5
0	8205	186.5	107.5
0	8206	186.5	7.5
0	8207	186.5	106.5
0	8208	186.5	6.5
0	8209	186.5	105.5
0	8210	186.5	5.5
0	8211	186.5	104.5
0	8212	186.5	4.5
0	8213	186.5	103.5
0	8214	186.5	3.5
0	8215	186.5	102.5
0	8216	186.5	2.5
0	8217	186.5	101.5
0	8218	186.5	1.5
0	8284	187.5	101.5
0	8285	187.5	101.5
0	8286	187.5	101.5
0	8287	187.5	1.5
0	8353	188.5	101.5
0	8354	188.5	101.5
0	8355	188.5	101.5
0	8356	188.5	1.5
0	8424	189.5	101.5
0	8425	189.5	101.5
0	8426	189.5	101.5
0	8427	189.5	1.5
0	8494	190.5	101.5
0	8495	190.5	101.5
0	8496	190.5	101.5
0	8497	190.5	1.5
0	8563	191.5	101.5
0	8564	191.5	101.5
0	8565	191.5	101.5
0	8566	191.5	1.5
0	8634	192.5	101.5
0	8635	192.5	101.5
0	8636	192.5	101.5
0	8637	192.5	1.5
0	8706	193.5	101.5
0	8707	193.5	101.5
0	8708	193.5	101.5
0	8709	193.5	1.5
0	8774	194.5	101.5
0	8775	194.5	101.5
0	8776	194.5	1.5
0	8851	195.5	101.5
0	8852	195.5	102.5
0	8853	195.5	101.5
0	8854	195.5	101.5
0	8855	195.5	1.5
0	8920	196.5	101.5
0	8921	196.5	101.5
0	8922	196.5	101.5
0	8923	196.5	1.5
0	8987	197.5	101.5
0	8988	197.5	101.5
0	8989	197.5	1.5
0	9063	198.5	101.5
0	9064	198.5	102.5
0	9065	198.5	101.5
0	9066	198.5	101.5
0	9067	198.5	1.5
0	9134	199.5	101.5
0	9135	199.5	101.5
0	9136	199.5	101.5
0	9137	199.5	1.5
0	9206	200.5	101.5
0	9207	200.5	101.5
0	9208	200.5	101.5
0	9209	200.5	1.5
0	9276	201.5	101.5
0	9277	201.5	101.5
0	9278	201.5	101.5
0	9279	201.5	1.5
0	9346	202.5	101.5
0	9347	202.5	101.5
0	9348	202.5	101.5
0	9349	202.5	1.5
0	9419	203.5	101.5
0	9420	203.5	101.5
0	9421	203.5	101.5
0	9422	203.5	1.5
0	9490	204.5	101.5
0	9491	204.5	101.5
0	9492	204.5	101.5
0	9493	204.5	1.5
0	9564	205.5	101.5
0	9565	205.5	101.5
0	9566	205.5	101.5
0	9567	205.5	1.5
0	9639	206.5	101.5
0	9640	206.5	101.5
0	9641	206.5	101.5
0	9642	206.5	1.5
0	9701	207.5	101.5
0	9702	207.5	101.5
0	9703	207.5	101.5
0	9704	207.5	1.5
0	9764	208.5	101.5
0	9765	208.5	1.5
0	9847	209.5	102.5
0	9848	209.5	101.5
0	9849	209.5	102.5
0	9850	209.5	101.5
0	9851	209.5	101.5
0	9852	209.5	1.5
0	9921	210.5	101.5
0	9922	210.5	101.5
0	9923	210.5	101.5
0	9924	210.5	1.5
0	9993	211.5	101.5
0	9994	211.5	101.5
0	9995	211.5	101.5
0	9996	211.5	1.5
0	10065	212.5	101.5
0	10066	212.5	101.5
0	10067	212.5	101.5
0	10068	212.5	1.5
0	10140	213.5	101.5
0	10141	213.5	101.5
0	10142	213.5	101.5
0	10143	213.5	1.5
0	10213	214.5	101.5
0	10214	214.5	101.5
0	10215	214.5	101.5
0	10216	214.5	1.5
0	10286	215.5	101.5
0	10287	215.5	101.5
0	10288	215.5	101.5
0	10289	215.5	1.5
0	10359	216.5	101.5
0	10360	216.5	101.5
0	10361	216.5	101.5
0	10362	216.5	1.5
0	10431	217.5	101.5
0	10432	217.5	101.5
0	10433	217.5	101.5
0	10434	217.5	1.5
0	10503	218.5	101.5
0	10504	218.5	101.5
0	10505	218.5	101.5
0	10506	218.5	1.5
0	10575	219.5	101.5
0	10576	219.5	101.5
0	10577	219.5	101.5
0	10578	219.5	1.5
0	10649	220.5	101.5
0	10650	220.5	101.5
0	10651	220.5	101.5
0	10652	220.5	1.5
0	10722	221.5	101.5
0	10723	221.5	101.5
0	10724	221.5	101.5
0	10725	221.5	1.5
0	10794	222.5	101.5
0	10795	222.5	101.5
0	10796	222.5	101.5
0	10797	222.5	1.5
0	10866	223.5	101.5
0	10867	223.5	101.5
0	10868	223.5	101.5
0	10869	223.5	1.5
0	10938	224.5	101.5
0	10939	224.5	101.5
0	10940	224.5	101.5
0	10941	224.5	1.5
0	11010	225.5	101.5
0	11011	225.5	101.5
0	11012	225.5	101.5
0	11013	225.5	1.5
0	11085	226.5	101.5
0	11086	226.5	101.5
0	11087	226.5	101.5
0	11088	226.5	1.5
0	11158	227.5	101.5
0	11159	227.5	101.5
0	11160	227.5	101.5
0	11161	227.5	1.5
0	11231	228.5	101.5
0	11232	228.5	101.5
0	11233	228.5	101.5
0	11234	228.5	1.5
0	11304	229.5	101.5
0	11305	229.5	101.5
0	11306	229.5	101.5
0	11307	229.5	1.5
0	11377	230.5	101.5
0	11378	230.5	101.5
0	11379	230.5	101.5
0	11380	230.5	1.5
0	11450	231.5	101.5
0	11451	231.5	101.5
0	11452	231.5	101.5
0	11453	231.5	1.5
0	11513	232.5	101.5
0	11514	232.5	101.5
0	11515	232.5	101.5
0	11516	232.5	1.5
0	11577	233.5	101.5
0	11578	233.5	1.5
0	11661	234.5	102.5
0	11662	234.5	101.5
0	11663	234.5	102.5
0	11664	234.5	101.5
0	11665	234.5	101.5
0	11666	234.5	1.5
0	11736	235.5	101.5
0	11737	235.5	101.5
0	11738	235.5	101.5
0	11739	235.5	1.5
0	11809	236.5	101.5
0	11810	236.5	101.5
0	11811	236.5	101.5
0	11812	236.5	1.5
0	11882	237.5	101.5
0	11883	237.5	101.5
0	11884	237.5	101.5
0	11885	237.5	1.5
0	11955	238.5	101.5
0	11956	238.5	101.5
0	11957	238.5	101.5
0	11958	238.5	1.5
0	12028	239.5	101.5
0	12029	239.5	101.5
0	12030	239.5	101.5
0	12031	239.5	1.5
0	12101	240.5	101.5
0	12102	240.5	101.5
0	12103	240.5	101.5
0	12104	240.5	1.5
0	12174	241.5	101.5
0	12175	241.5	101.5
0	12176	241.5	101.5
0	12177	241.5	1.5
0	12247	242.5	101.5
0	12248	242.5	101.5
0	12249	242.5	101.5
0	12250	242.5	1.5
0	12320	243.5	101.5
0	12321	243.5	101.5
0	12322	243.5	101.5
0	12323	243.5	1.5
0	12393	244.5	101.5
0	12394	244.5	101.5
0	12395	244.5	101.5
0	12396	244.5	1.5
0	12466	245.5	101.5
0	12467	245.5	101.5
0	12468	245.5	101.5
0	12469	245.5	1.5
0	12539	246.5	101.5
0	12540	246.5	101.5
0	12541	246.5	101.5
0	12542	246.5	1.5
0	12606	247.5	101.5
0	12607	247.5	101.5
0	12608	247.5	101.5
0	12609	247.5	1.5
0	12671	248.5	101.5
0	12672	248.5	101.5
0	12755	249.5	101.5
0	12756	249.5	101.5
0	12757	249.5	102.5
0	12758	249.5	2.5
0	12759	249.5	101.5
0	12760	249.5	1.5
0	12831	250.5	101.5
0	12832	250.5	101.5
0	12833	250.5	101.5
0	12834	250.5	1.5
0	12904	251.5	101.5
0	12905	251.5	101.5
0	12906	251.5	101.5
0	12907	251.5	1.5
0	12977	252.5	101.5
0	12978	252.5	101.5
0	12979	252.5	101.5
0	12980	252.5	1.5
0	13050	253.5	101.5
0	13051	253.5	101.5
0	13052	253.5	101.5
0	13053	253.5	1.5
0	13122	254.5	101.5
0	13123	254.5	101.5
0	13124	254.5	101.5
0	13125	254.5	1.5
0	13194	255.5	101.5
0	13195	255.5	101.5
0	13196	255.5	101.5
0	13197	255.5	1.5
0	13268	256.5	101.5
0	13269	256.5	101.5
0	13270	256.5	101.5
0	13271	256.5	1.5
0	13341	257.5	101.5
0	13342	257.5	101.5
0	13343	257.5	101.5
0	13344	257.5	1.5
0	13411	258.5	101.5
0	13412	258.5	101.5
0	13413	258.5	101.5
0	13414	258.5	1.5
0	14320	259.5	101.5
0	14321	259.5	101.5
0	14322	259.5	1.5
0	15672	260.5	260.5
0	15673	260.5	259.5
0	15674	260.5	258.5
0	15675	260.5	257.5
0	15676	260.5	256.5
0	15677	260.5	255.5
0	15678	260.5	254.5
0	15679	260.5	253.5
0	15680	260.5	252.5
0	15681	260.5	251.5
0	15682	260.5	250.5
0	15683	260.5	249.5
0	15684	260.5	248.5
0	15685	260.5	247.5
0	15686	260.5	246.5
0	15687	260.5	245.5
0	15688	260.5	244.5
0	15689	260.5	243.5
0	15690	260.5	242.5
0	15691	260.5	241.5
0	15692	260.5	240.5
0	15693	260.5	239.5
0	15694	260.5	238.5
0	15695	260.5	237.5
0	15696	260.5	236.5
0	15697	260.5	235.5
0	15698	260.5	234.5
0	15699	260.5	233.5
0	15700	260.5	232.5
0	15701	260.5	231.5
0	15702	260.5	230.5
0	15703	260.5	229.5
0	15704	260.5	228.5
0	15705	260.5	227.5
0	15706	260.5	226.5
0	15707	260.5	225.5
0	15708	260.5	224.5
0	15709	260.5	223.5
0	15710	260.5	222.5
0	15711	260.5	221.5
0	15712	260.5	220.5
0	15713	260.5	219.5
0	15714	260.5	218.5
0	15715	260.5	217.5
0	15716	260.5	216.5
0	15717	260.5	215.5
0	15718	260.5	214.5
0	15719	260.5	213.5
0	15720	260.5	212.5
0	15721	260.5	211.5
0	15722	260.5	210.5
0	15723	260.5	209.5
0	15724	260.5	208.5
0	15725	260.5	207.5
0	15726	260.5	206.5
0	15727	260.5	205.5
0	15728	260.5	204.5
0	15729	260.5	203.5
0	15730	260.5	202.5
0	15731	260.5	201.5
0	15732	260.5	101.5
0	15733	260.5	102.5
0	15734	260.5	260.5
0	15735	260.5	260.5
0	15736	260.5	259.5
0	15737	260.5	259.5
0	15738	260.5	258.5
0	15739	260.5	258.5
0	15740	260.5	257.5
0	15741	260.5	257.5
0	15742	260.5	256.5
0	15743	260.5	256.5
0	15744	260.5	255.5
0	15745	260.5	255.5
0	15746	260.5	254.5
0	15747	260.5	254.5
0	15748	260.5	253.5
0	15749	260.5	253.5
0	15750	260.5	252.5
0	15751	260.5	252.5
0	15752	260.5	251.5
0	15753	260.5	251.5
0	15754	260.5	250.5
0	15755	260.5	250.5
0	15756	260.5	249.5
0	15757	260.5	249.5
0	15758	260.5	248.5
0	15759	260.5	248.5
0	15760	260.5	247.5
0	15761	260.5	247.5
0	15762	260.5	246.5
0	15763	260.5	246.5
0	15764	260.5	245.5
0	15765	260.5	245.5
0	15766	260.5	244.5
0	15767	260.5	244.5
0	15768	260.5	243.5
0	15769	260.5	243.5
0	15770	260.5	242.5
0	15771	260.5	242.5
0	15772	260.5	241.5
0	15773	260.5	241.5
0	15774	260.5	240.5
0	15775	260.5	240.5
0	15776	260.5	239.5
0	15777	260.5	239.5
0	15778	260.5	238.5
0	15779	260.5	238.5
0	15780	260.5	237.5
0	15781	260.5	237.5
0	15782	260.5	236.5
0	15783	260.5	236.5
0	15784	260.5	235.5
0	15785	260.5	235.5
0	15786	260.5	234.5
0	15787	260.5	234.5
0	15788	260.5	233.5
0	15789	260.5	233.5
0	15790	260.5	232.5
0	15791	260.5	232.5
0	15792	260.5	231.5
0	15793	260.5	231.5
0	15794	260.5	230.5
0	15795	260.5	230.5
0	15796	260.5	229.5
0	15797	260.5	229.5
0	15798	260.5	228.5
0	15799	260.5	228.5
0	15800	260.5	227.5
0	15801	260.5	227.5
0	15802	260.5	226.5
0	15803	260.5	226.5
0	15804	260.5	225.5
0	15805	260.5	225.5
0	15806	260.5	224.5
0	15807	260.5	224.5
0	15808	260.5	223.5
0	15809	260.5	223.5
0	15810	260.5	222.5
0	15811	260.5	222.5
0	15812	260.5	221.5
0	15813	260.5	221.5
0	15814	260.5	220.5
0	15815	260.5	220.5
0	15816	260.5	219.5
0	15817	260.5	219.5
0	15818	260.5	218.5
0	15819	260.5	218.5
0	15820	260.5	217.5
0	15821	260.5	217.5
0	15822	260.5	216.5
0	15823	260.5	216.5
0	15824	260.5	215.5
0	15825	260.5	215.5
0	15826	260.5	214.5
0	15827	260.5	214.5
0	15828	260.5	213.5
0	15829	260.5	213.5
0	15830	260.5	212.5
0	15831	260.5	212.5
0	15832	260.5	211.5
0	15833	260.5	211.5
0	15834	260.5	210.5
0	15835	260.5	210.5
0	15836	260.5	209.5
0	15837	260.5	209.5
0	15838	260.5	208.5
0	15839	260.5	208.5
0	15840	260.5	207.5
0	15841	260.5	207.5
0	15842	260.5	206.5
0	15843	260.5	206.5
0	15844	260.5	205.5
0	15845	260.5	205.5
0	15846	260.5	204.5
0	15847	260.5	204.5
0	15848	260.5	203.5
0	15849	260.5	203.5
0	15850	260.5	202.5
0	15851	260.5	202.5
0	15852	260.5	201.5
0	15853	260.5	201.5
0	15854	260.5	101.5
0	15855	260.5	101.5
0	15856	260.5	1.5
0	15960	261.5	201.5
0	15961	261.5	101.5
0	15962	261.5	201.5
0	15963	261.5	201.5
0	15964	261.5	101.5
0	15965	261.5	101.5
0	15966	261.5	1.5
0	16069	262.5	201.5
0	16070	262.5	101.5
0	16071	262.5	201.5
0	16072	262.5	201.5
0	16073	262.5	101.5
0	16074	262.5	101.5
0	16075	262.5	1.5
0	16178	263.5	201.5
0	16179	263.5	101.5
0	16180	263.5	201.5
0	16181	263.5	201.5
0	16182	263.5	101.5
0	16183	263.5	101.5
0	16184	263.5	1.5
0	16287	264.5	201.5
0	16288	264.5	101.5
0	16289	264.5	201.5
0	16290	264.5	201.5
0	16291	264.5	101.5
0	16292	264.5	101.5
0	16293	264.5	1.5
0	16708	265.1	265.1
0	16709	265.1	264.1
0	16710	265.1	263.1
0	16711	265.1	262.1
0	16712	265.1	261.1
0	16713	265.1	260.1
0	16714	265.1	259.1
0	16715	265.1	258.1
0	16716	265.1	257.1
0	16717	265.1	256.1
0	16718	265.1	255.1
0	16719	265.1	254.1
0	16720	265.1	253.1
0	16721	265.1	252.1
0	16722	265.1	251.1
0	16723	265.1	250.1
0	16724	265.1	249.1
0	16725	265.1	248.1
0	16726	265.1	247.1
0	16727	265.1	246.1
0	16728	265.1	245.1
0	16729	265.1	244.1
0	16730	265.1	243.1
0	16731	265.1	242.1
0	16732	265.1	241.1
0	16733	265.1	240.1
0	16734	265.1	239.1
0	16735	265.1	238.1
0	16736	265.1	237.1
0	16737	265.1	236.1
0	16738	265.1	235.1
0	16739	265.1	234.1
0	16740	265.1	233.1
0	16741	265.1	232.1
0	16742	265.1	231.1
0	16743	265.1	230.1
0	16744	265.1	229.1
0	16745	265.1	228.1
0	16746	265.1	227.1
0	16747	265.1	226.1
0	16748	265.1	225.1
0	16749	265.1	224.1
0	16750	265.1	223.1
0	16751	265.1	222.1
0	16752	265.1	221.1
0	16753	265.1	220.1
0	16754	265.1	219.1
0	16755	265.1	218.1
0	16756	265.1	217.1
0	16757	265.1	216.1
0	16758	265.1	215.1
0	16759	265.1	214.1
0	16760	265.1	213.1
0	16761	265.1	212.1
0	16762	265.1	211.1
0	16763	265.1	210.1
0	16764	265.1	209.1
0	16765	265.1	208.1
0	16766	265.1	207.1
0	16767	265.1	206.1
0	16768	265.1	205.1
0	16769	265.1	204.1
0	16770	265.1	203.1
0	16771	265.1	202.1
0	16846	265.5	201.5
0	16847	265.5	101.5
0	16848	265.5	201.5
0	16849	265.5	201.5
0	16850	265.5	101.5
0	16851	265.5	101.5
0	16852	265.5	1.5
0	16955	266.5	201.5
0	16956	266.5	101.5
0	16957	266.5	201.5
0	16958	266.5	201.5
0	16959	266.5	101.5
0	16960	266.5	101.5
0	16961	266.5	1.5
0	17064	267.5	201.5
0	17065	267.5	101.5
0	17066	267.5	201.5
0	17067	267.5	201.5
0	17068	267.5	101.5
0	17069	267.5	101.5
0	17070	267.5	1.5
0	17176	268.5	201.5
0	17177	268.5	101.5
0	17178	268.5	201.5
0	17179	268.5	201.5
0	17180	268.5	101.5
0	17181	268.5	101.5
0	17182	268.5	1.5
0	17291	269.5	201.5
0	17292	269.5	101.5
0	17293	269.5	201.5
0	17294	269.5	201.5
0	17295	269.5	101.5
0	17296	269.5	101.5
0	17297	269.5	1.5
0	17406	270.5	201.5
0	17407	270.5	101.5
0	17408	270.5	201.5
0	17409	270.5	201.5
0	17410	270.5	101.5
0	17411	270.5	101.5
0	17412	270.5	1.5
0	17530	271.5	201.5
0	17531	271.5	101.5
0	17532	271.5	201.5
0	17533	271.5	201.5
0	17534	271.5	101.5
0	17535	271.5	201.5
0	17536	271.5	101.5
0	17537	271.5	1.5
0	17653	272.5	201.5
0	17654	272.5	101.5
0	17655	272.5	201.5
0	17656	272.5	201.5
0	17657	272.5	101.5
0	17658	272.5	201.5
0	17659	272.5	101.5
0	17660	272.5	1.5
0	17776	273.5	201.5
0	17777	273.5	101.5
0	17778	273.5	201.5
0	17779	273.5	201.5
0	17780	273.5	101.5
0	17781	273.5	201.5
0	17782	273.5	101.5
0	17783	273.5	1.5
0	17899	274.5	201.5
0	17900	274.5	101.5
0	17901	274.5	201.5
0	17902	274.5	201.5
0	17903	274.5	101.5
0	17904	274.5	201.5
0	17905	274.5	101.5
0	17906	274.5	1.5
0	17996	275.5	201.5
0	17997	275.5	101.5
0	17998	275.5	201.5
0	17999	275.5	201.5
0	18000	275.5	101.5
0	18001	275.5	201.5
0	18002	275.5	101.5
0	18003	275.5	1.5
0	18061	276.5	201.5
0	18062	276.5	201.5
0	18063	276.5	1.5
0	18119	277.5	201.5
0	18120	277.5	201.5
0	18121	277.5	1.5
0	18177	278.5	201.5
0	18178	278.5	201.5
0	18179	278.5	1.5
0	18235	279.5	201.5
0	18236	279.5	201.5
0	18237	279.5	1.5
0	18287	280.5	201.5
0	18288	280.5	201.5
0	18289	280.5	1.5
0	18338	281.5	201.5
0	18339	281.5	201.5
0	18340	281.5	1.5
0	18387	282.5	201.5
0	18388	282.5	201.5
0	18389	282.5	1.5
0	18435	283.5	201.5
0	18436	283.5	201.5
0	18437	283.5	1.5
0	18483	284.5	201.5
0	18484	284.5	201.5
0	18485	284.5	1.5
0	18822	285.5	201.5
0	18823	285.5	201.5
0	18824	285.5	1.5
0	19330	286.5	201.5
0	19331	286.5	211.5
0	19332	286.5	111.5
0	19333	286.5	210.5
0	19334	286.5	110.5
0	19335	286.5	209.5
0	19336	286.5	109.5
0	19337	286.5	208.5
0	19338	286.5	108.5
0	19339	286.5	207.5
0	19340	286.5	107.5
0	19341	286.5	206.5
0	19342	286.5	106.5
0	19343	286.5	205.5
0	19344	286.5	105.5
0	19345	286.5	204.5
0	19346	286.5	104.5
0	19347	286.5	203.5
0	19348	286.5	103.5
0	19349	286.5	202.5
0	19350	286.5	102.5
0	19351	286.5	101.5
0	19352	286.5	201.5
0	19353	286.5	211.5
0	19354	286.5	211.5
0	19355	286.5	111.5
0	19356	286.5	111.5
0	19357	286.5	210.5
0	19358	286.5	210.5
0	19359	286.5	110.5
0	19360	286.5	110.5
0	19361	286.5	209.5
0	19362	286.5	209.5
0	19363	286.5	109.5
0	19364	286.5	109.5
0	19365	286.5	208.5
0	19366	286.5	208.5
0	19367	286.5	108.5
0	19368	286.5	108.5
0	19369	286.5	207.5
0	19370	286.5	207.5
0	19371	286.5	107.5
0	19372	286.5	107.5
0	19373	286.5	206.5
0	19374	286.5	206.5
0	19375	286.5	106.5
0	19376	286.5	106.5
0	19377	286.5	205.5
0	19378	286.5	205.5
0	19379	286.5	105.5
0	19380	286.5	105.5
0	19381	286.5	204.5
0	19382	286.5	204.5
0	19383	286.5	104.5
0	19384	286.5	104.5
0	19385	286.5	203.5
0	19386	286.5	203.5
0	19387	286.5	103.5
0	19388	286.5	103.5
0	19389	286.5	202.5
0	19390	286.5	202.5
0	19391	286.5	102.5
0	19392	286.5	102.5
0	19393	286.5	201.5
0	19394	286.5	201.5
0	19395	286.5	101.5
0	19396	286.5	101.5
0	19397	286.5	1.5
0	19501	287.5	201.5
0	19502	287.5	101.5
0	19503	287.5	201.5
0	19504	287.5	201.5
0	19505	287.5	101.5
0	19506	287.5	1.5
0	19631	288.5	201.5
0	19632	288.5	101.5
0	19633	288.5	201.5
0	19634	288.5	202.5
0	19635	288.5	201.5
0	19636	288.5	102.5
0	19637	288.5	101.5
0	19638	288.5	201.5
0	19639	288.5	1.5
0	19640	288.5	101.5
0	19751	289.5	201.5
0	19752	289.5	101.5
0	19753	289.5	201.5
0	19754	289.5	201.5
0	19755	289.5	201.5
0	19756	289.5	101.5
0	19757	289.5	101.5
0	19758	289.5	1.5
0	19869	290.5	201.5
0	19870	290.5	101.5
0	19871	290.5	201.5
0	19872	290.5	201.5
0	19873	290.5	201.5
0	19874	290.5	101.5
0	19875	290.5	101.5
0	19876	290.5	1.5
0	19987	291.5	201.5
0	19988	291.5	101.5
0	19989	291.5	201.5
0	19990	291.5	201.5
0	19991	291.5	201.5
0	19992	291.5	101.5
0	19993	291.5	101.5
0	19994	291.5	1.5
0	20104	292.5	201.5
0	20105	292.5	101.5
0	20106	292.5	201.5
0	20107	292.5	201.5
0	20108	292.5	201.5
0	20109	292.5	101.5
0	20110	292.5	101.5
0	20111	292.5	1.5
0	20217	293.5	201.5
0	20218	293.5	101.5
0	20219	293.5	201.5
0	20220	293.5	201.5
0	20221	293.5	201.5
0	20222	293.5	101.5
0	20223	293.5	101.5
0	20224	293.5	1.5
0	20324	294.5	201.5
0	20325	294.5	101.5
0	20326	294.5	201.5
0	20327	294.5	201.5
0	20328	294.5	101.5
0	20329	294.5	101.5
0	20330	294.5	1.5
0	20445	295.5	201.5
0	20446	295.5	202.5
0	20447	295.5	101.5
0	20448	295.5	202.5
0	20449	295.5	201.5
0	20450	295.5	201.5
0	20451	295.5	101.5
0	20452	295.5	1.5
0	20565	296.5	201.5
0	20566	296.5	101.5
0	20567	296.5	201.5
0	20568	296.5	202.5
0	20569	296.5	201.5
0	20570	296.5	102.5
0	20571	296.5	101.5
0	20572	296.5	201.5
0	20573	296.5	1.5
0	20574	296.5	101.5
0	20659	297.5	201.5
0	20660	297.5	101.5
0	20661	297.5	201.5
0	20662	297.5	101.5
0	20663	297.5	1.5
0	20764	298.5	201.5
0	20765	298.5	202.5
0	20766	298.5	101.5
0	20767	298.5	202.5
0	20768	298.5	201.5
0	20769	298.5	201.5
0	20770	298.5	101.5
0	20771	298.5	1.5
0	20859	299.5	201.5
0	20860	299.5	101.5
0	20861	299.5	201.5
0	20862	299.5	201.5
0	20863	299.5	101.5
0	20864	299.5	1.5
0	20952	300.5	201.5
0	20953	300.5	101.5
0	20954	300.5	201.5
0	20955	300.5	201.5
0	20956	300.5	101.5
0	20957	300.5	1.5
0	21045	301.5	201.5
0	21046	301.5	101.5
0	21047	301.5	201.5
0	21048	301.5	201.5
0	21049	301.5	101.5
0	21050	301.5	1.5
0	21138	302.5	201.5
0	21139	302.5	101.5
0	21140	302.5	201.5
0	21141	302.5	201.5
0	21142	302.5	101.5
0	21143	302.5	1.5
0	21231	303.5	201.5
0	21232	303.5	101.5
0	21233	303.5	201.5
0	21234	303.5	201.5
0	21235	303.5	101.5
0	21236	303.5	1.5
0	21325	304.5	201.5
0	21326	304.5	101.5
0	21327	304.5	201.5
0	21328	304.5	201.5
0	21329	304.5	101.5
0	21330	304.5	1.5
0	21418	305.5	201.5
0	21419	305.5	101.5
0	21420	305.5	201.5
0	21421	305.5	201.5
0	21422	305.5	101.5
0	21423	305.5	1.5
0	21511	306.5	201.5
0	21512	306.5	101.5
0	21513	306.5	201.5
0	21514	306.5	201.5
0	21515	306.5	101.5
0	21516	306.5	1.5
0	21600	307.5	201.5
0	21601	307.5	101.5
0	21602	307.5	201.5
0	21603	307.5	201.5
0	21604	307.5	101.5
0	21605	307.5	1.5
0	21688	308.5	201.5
0	21689	308.5	101.5
0	21690	308.5	201.5
0	21691	308.5	101.5
0	21692	308.5	1.5
0	21794	309.5	202.5
0	21795	309.5	201.5
0	21796	309.5	101.5
0	21797	309.5	202.5
0	21798	309.5	201.5
0	21799	309.5	201.5
0	21800	309.5	101.5
0	21801	309.5	1.5
0	21889	310.5	201.5
0	21890	310.5	101.5
0	21891	310.5	201.5
0	21892	310.5	201.5
0	21893	310.5	101.5
0	21894	310.5	1.5
0	21982	311.5	201.5
0	21983	311.5	101.5
0	21984	311.5	201.5
0	21985	311.5	201.5
0	21986	311.5	101.5
0	21987	311.5	1.5
0	22075	312.5	201.5
0	22076	312.5	101.5
0	22077	312.5	201.5
0	22078	312.5	201.5
0	22079	312.5	101.5
0	22080	312.5	1.5
0	22168	313.5	201.5
0	22169	313.5	101.5
0	22170	313.5	201.5
0	22171	313.5	201.5
0	22172	313.5	101.5
0	22173	313.5	1.5
0	22261	314.5	201.5
0	22262	314.5	101.5
0	22263	314.5	201.5
0	22264	314.5	201.5
0	22265	314.5	101.5
0	22266	314.5	1.5
0	22354	315.5	201.5
0	22355	315.5	101.5
0	22356	315.5	201.5
0	22357	315.5	201.5
0	22358	315.5	101.5
0	22359	315.5	1.5
0	22446	316.5	201.5
0	22447	316.5	101.5
0	22448	316.5	201.5
0	22449	316.5	201.5
0	22450	316.5	101.5
0	22451	316.5	1.5
0	22538	317.5	201.5
0	22539	317.5	101.5
0	22540	317.5	201.5
0	22541	317.5	201.5
0	22542	317.5	101.5
0	22543	317.5	1.5
0	22633	318.5	201.5
0	22634	318.5	101.5
0	22635	318.5	201.5
0	22636	318.5	201.5
0	22637	318.5	101.5
0	22638	318.5	1.5
0	22729	319.5	201.5
0	22730	319.5	101.5
0	22731	319.5	201.5
0	22732	319.5	201.5
0	22733	319.5	101.5
0	22734	319.5	1.5
0	22823	320.5	201.5
0	22824	320.5	101.5
0	22825	320.5	201.5
0	22826	320.5	201.5
0	22827	320.5	101.5
0	22828	320.5	1.5
0	22917	321.5	201.5
0	22918	321.5	101.5
0	22919	321.5	201.5
0	22920	321.5	201.5
0	22921	321.5	101.5
0	22922	321.5	1.5
0	23014	322.5	201.5
0	23015	322.5	101.5
0	23016	322.5	201.5
0	23017	322.5	201.5
0	23018	322.5	101.5
0	23019	322.5	1.5
0	23109	323.5	201.5
0	23110	323.5	101.5
0	23111	323.5	201.5
0	23112	323.5	201.5
0	23113	323.5	101.5
0	23114	323.5	1.5
0	23204	324.5	201.5
0	23205	324.5	101.5
0	23206	324.5	201.5
0	23207	324.5	201.5
0	23208	324.5	101.5
0	23209	324.5	1.5
0	23299	325.5	201.5
0	23300	325.5	101.5
0	23301	325.5	201.5
0	23302	325.5	201.5
0	23303	325.5	101.5
0	23304	325.5	1.5
0	23396	326.5	201.5
0	23397	326.5	101.5
0	23398	326.5	201.5
0	23399	326.5	201.5
0	23400	326.5	101.5
0	23401	326.5	1.5
0	23492	327.5	201.5
0	23493	327.5	101.5
0	23494	327.5	201.5
0	23495	327.5	201.5
0	23496	327.5	101.5
0	23497	327.5	1.5
0	23588	328.5	201.5
0	23589	328.5	101.5
0	23590	328.5	201.5
0	23591	328.5	201.5
0	23592	328.5	101.5
0	23593	328.5	1.5
0	23672	329.5	201.5
0	23673	329.5	101.5
0	23674	329.5	201.5
0	23675	329.5	201.5
0	23676	329.5	101.5
0	23677	329.5	1.5
0	23751	330.5	201.5
0	23752	330.5	101.5
0	23869	331.5	201.5
0	23870	331.5	101.5
0	23871	331.5	202.5
0	23872	331.5	202.5
0	23873	331.5	102.5
0	23874	331.5	2.5
0	23875	331.5	201.5
0	23876	331.5	201.5
0	23877	331.5	101.5
0	23878	331.5	1.5
0	23963	332.5	201.5
0	23964	332.5	101.5
0	23965	332.5	201.5
0	23966	332.5	201.5
0	23967	332.5	101.5
0	23968	332.5	1.5
0	24052	333.5	201.5
0	24053	333.5	101.5
0	24054	333.5	201.5
0	24055	333.5	101.5
0	24056	333.5	1.5
0	24159	334.5	202.5
0	24160	334.5	201.5
0	24161	334.5	101.5
0	24162	334.5	202.5
0	24163	334.5	201.5
0	24164	334.5	201.5
0	24165	334.5	101.5
0	24166	334.5	1.5
0	24255	335.5	201.5
0	24256	335.5	101.5
0	24257	335.5	201.5
0	24258	335.5	201.5
0	24259	335.5	101.5
0	24260	335.5	1.5
0	24349	336.5	201.5
0	24350	336.5	101.5
0	24351	336.5	201.5
0	24352	336.5	201.5
0	24353	336.5	101.5
0	24354	336.5	1.5
0	24443	337.5	201.5
0	24444	337.5	101.5
0	24445	337.5	201.5
0	24446	337.5	201.5
0	24447	337.5	101.5
0	24448	337.5	1.5
0	24537	338.5	201.5
0	24538	338.5	101.5
0	24539	338.5	201.5
0	24540	338.5	201.5
0	24541	338.5	101.5
0	24542	338.5	1.5
0	24631	339.5	201.5
0	24632	339.5	101.5
0	24633	339.5	201.5
0	24634	339.5	201.5
0	24635	339.5	101.5
0	24636	339.5	1.5
0	24725	340.5	201.5
0	24726	340.5	101.5
0	24727	340.5	201.5
0	24728	340.5	201.5
0	24729	340.5	101.5
0	24730	340.5	1.5
0	24822	341.5	201.5
0	24823	341.5	101.5
0	24824	341.5	201.5
0	24825	341.5	201.5
0	24826	341.5	101.5
0	24827	341.5	1.5
0	24917	342.5	201.5
0	24918	342.5	101.5
0	24919	342.5	201.5
0	24920	342.5	201.5
0	24921	342.5	101.5
0	24922	342.5	1.5
0	25012	343.5	201.5
0	25013	343.5	101.5
0	25014	343.5	201.5
0	25015	343.5	201.5
0	25016	343.5	101.5
0	25017	343.5	1.5
0	25107	344.5	201.5
0	25108	344.5	101.5
0	25109	344.5	201.5
0	25110	344.5	201.5
0	25111	344.5	101.5
0	25112	344.5	1.5
0	25201	345.5	201.5
0	25202	345.5	101.5
0	25203	345.5	201.5
0	25204	345.5	201.5
0	25205	345.5	101.5
0	25206	345.5	1.5
0	25294	346.5	201.5
0	25295	346.5	101.5
0	25296	346.5	201.5
0	25297	346.5	201.5
0	25298	346.5	101.5
0	25299	346.5	1.5
0	25383	347.5	201.5
0	25384	347.5	101.5
0	25385	347.5	201.5
0	25386	347.5	201.5
0	25387	347.5	101.5
0	25388	347.5	1.5
0	25469	348.5	201.5
0	25470	348.5	201.5
0	25471	348.5	201.5
0	25472	348.5	101.5
0	25473	348.5	1.5
0	25571	349.5	201.5
0	25572	349.5	202.5
0	25573	349.5	102.5
0	25574	349.5	101.5
0	25575	349.5	201.5
0	25576	349.5	201.5
0	25577	349.5	101.5
0	25578	349.5	1.5
0	25664	350.5	201.5
0	25665	350.5	101.5
0	25666	350.5	201.5
0	25667	350.5	201.5
0	25668	350.5	101.5
0	25669	350.5	1.5
0	25757	351.5	201.5
0	25758	351.5	101.5
0	25759	351.5	201.5
0	25760	351.5	201.5
0	25761	351.5	101.5
0	25762	351.5	1.5
0	25849	352.5	201.5
0	25850	352.5	101.5
0	25851	352.5	201.5
0	25852	352.5	201.5
0	25853	352.5	101.5
0	25854	352.5	1.5
0	25941	353.5	201.5
0	25942	353.5	101.5
0	25943	353.5	201.5
0	25944	353.5	201.5
0	25945	353.5	101.5
0	25946	353.5	1.5
0	26033	354.5	201.5
0	26034	354.5	101.5
0	26035	354.5	201.5
0	26036	354.5	201.5
0	26037	354.5	101.5
0	26038	354.5	1.5
0	26124	355.5	201.5
0	26125	355.5	101.5
0	26126	355.5	201.5
0	26127	355.5	201.5
0	26128	355.5	101.5
0	26129	355.5	1.5
0	26584	356.5	201.5
0	26585	356.5	101.5
0	26586	356.5	201.5
0	26587	356.5	201.5
0	26588	356.5	101.5
0	26589	356.5	1.5
0	27496	357.4	261.4
0	27497	357.4	161.4
0	27498	357.4	260.4
0	27499	357.4	160.4
0	27500	357.4	259.4
0	27501	357.4	159.4
0	27502	357.4	258.4
0	27503	357.4	158.4
0	27504	357.4	257.4
0	27505	357.4	157.4
0	27506	357.4	256.4
0	27507	357.4	156.4
0	27508	357.4	255.4
0	27509	357.4	155.4
0	27510	357.4	254.4
0	27511	357.4	154.4
0	27512	357.4	253.4
0	27513	357.4	153.4
0	27514	357.4	252.4
0	27515	357.4	152.4
0	27516	357.4	251.4
0	27517	357.4	151.4
0	27518	357.4	250.4
0	27519	357.4	150.4
0	27520	357.4	249.4
0	27521	357.4	149.4
0	27522	357.4	248.4
0	27523	357.4	148.4
0	27524	357.4	247.4
0	27525	357.4	147.4
0	27526	357.4	246.4
0	27527	357.4	146.4
0	27528	357.4	245.4
0	27529	357.4	145.4
0	27530	357.4	244.4
0	27531	357.4	144.4
0	27532	357.4	243.4
0	27533	357.4	143.4
0	27534	357.4	242.4
0	27535	357.4	142.4
0	27536	357.4	241.4
0	27537	357.4	141.4
0	27538	357.4	240.4
0	27539	357.4	140.4
0	27540	357.4	239.4
0	27541	357.4	139.4
0	27542	357.4	238.4
0	27543	357.4	138.4
0	27544	357.4	237.4
0	27545	357.4	137.4
0	27546	357.4	236.4
0	27547	357.4	136.4
0	27548	357.4	235.4
0	27549	357.4	135.4
0	27550	357.4	234.4
0	27551	357.4	134.4
0	27552	357.4	233.4
0	27553	357.4	133.4
0	27554	357.4	232.4
0	27555	357.4	132.4
0	27556	357.4	231.4
0	27557	357.4	131.4
0	27558	357.4	230.4
0	27559	357.4	130.4
0	27560	357.4	229.4
0	27561	357.4	129.4
0	27562	357.4	228.4
0	27563	357.4	128.4
0	27564	357.4	227.4
0	27565	357.4	127.4
0	27566	357.4	226.4
0	27567	357.4	126.4
0	27568	357.4	225.4
0	27569	357.4	125.4
0	27570	357.4	224.4
0	27571	357.4	124.4
0	27572	357.4	223.4
0	27573	357.4	123.4
0	27574	357.4	222.4
0	27575	357.4	122.4
0	27576	357.4	221.4
0	27577	357.4	121.4
0	27578	357.4	220.4
0	27579	357.4	120.4
0	27580	357.4	219.4
0	27581	357.4	119.4
0	27582	357.4	218.4
0	27583	357.4	118.4
0	27584	357.4	217.4
0	27585	357.4	117.4
0	27586	357.4	216.4
0	27587	357.4	116.4
0	27588	357.4	215.4
0	27589	357.4	115.4
0	27590	357.4	214.4
0	27591	357.4	114.4
0	27592	357.4	213.4
0	27593	357.4	113.4
0	27594	357.4	212.4
0	27595	357.4	112.4
0	27596	357.4	211.4
0	27597	357.4	111.4
0	27598	357.4	210.4
0	27599	357.4	110.4
0	27600	357.4	209.4
0	27601	357.4	109.4
0	27602	357.4	208.4
0	27603	357.4	108.4
0	27604	357.4	207.4
0	27605	357.4	107.4
0	27606	357.4	206.4
0	27607	357.4	106.4
0	27608	357.4	205.4
0	27609	357.4	105.4
0	27610	357.4	204.4
0	27611	357.4	104.4
0	27612	357.4	203.4
0	27613	357.4	103.4
0	27614	357.4	202.4
0	27615	357.4	102.4
0	27657	357.5	201.5
0	27658	357.5	101.5
0	27659	357.5	201.5
0	27660	357.5	201.5
0	27661	357.5	201.5
0	27662	357.5	101.5
0	27663	357.5	101.5
0	27664	357.5	1.5
0	27767	358.5	201.5
0	27768	358.5	101.5
0	27769	358.5	201.5
0	27770	358.5	201.5
0	27771	358.5	201.5
0	27772	358.5	101.5
0	27773	358.5	101.5
0	27774	358.5	1.5
0	28896	359.5	201.5
0	28897	359.5	101.5
0	28898	359.5	201.5
0	28899	359.5	201.5
0	28900	359.5	101.5
0	28901	359.5	101.5
0	28902	359.5	1.5
0	30781	360.5	360.5
0	30782	360.5	359.5
0	30783	360.5	358.5
0	30784	360.5	357.5
0	30785	360.5	356.5
0	30786	360.5	355.5
0	30787	360.5	354.5
0	30788	360.5	353.5
0	30789	360.5	352.5
0	30790	360.5	351.5
0	30791	360.5	350.5
0	30792	360.5	349.5
0	30793	360.5	348.5
0	30794	360.5	347.5
0	30795	360.5	346.5
0	30796	360.5	345.5
0	30797	360.5	344.5
0	30798	360.5	343.5
0	30799	360.5	342.5
0	30800	360.5	341.5
0	30801	360.5	340.5
0	30802	360.5	339.5
0	30803	360.5	338.5
0	30804	360.5	337.5
0	30805	360.5	336.5
0	30806	360.5	335.5
0	30807	360.5	334.5
0	30808	360.5	333.5
0	30809	360.5	332.5
0	30810	360.5	331.5
0	30811	360.5	330.5
0	30812	360.5	329.5
0	30813	360.5	328.5
0	30814	360.5	327.5
0	30815	360.5	326.5
0	30816	360.5	325.5
0	30817	360.5	324.5
0	30818	360.5	323.5
0	30819	360.5	322.5
0	30820	360.5	321.5
0	30821	360.5	320.5
0	30822	360.5	319.5
0	30823	360.5	318.5
0	30824	360.5	317.5
0	30825	360.5	316.5
0	30826	360.5	315.5
0	30827	360.5	314.5
0	30828	360.5	313.5
0	30829	360.5	312.5
0	30830	360.5	311.5
0	30831	360.5	310.5
0	30832	360.5	309.5
0	30833	360.5	308.5
0	30834	360.5	307.5
0	30835	360.5	306.5
0	30836	360.5	305.5
0	30837	360.5	304.5
0	30838	360.5	303.5
0	30839	360.5	302.5
0	30840	360.5	301.5
0	30841	360.5	201.5
0	30842	360.5	202.5
0	30843	360.5	101.5
0	30844	360.5	202.5
0	30845	360.5	360.5
0	30846	360.5	360.5
0	30847	360.5	359.5
0	30848	360.5	359.5
0	30849	360.5	358.5
0	30850	360.5	358.5
0	30851	360.5	357.5
0	30852	360.5	357.5
0	30853	360.5	356.5
0	30854	360.5	356.5
0	30855	360.5	355.5
0	30856	360.5	355.5
0	30857	360.5	354.5
0	30858	360.5	354.5
0	30859	360.5	353.5
0	30860	360.5	353.5
0	30861	360.5	352.5
0	30862	360.5	352.5
0	30863	360.5	351.5
0	30864	360.5	351.5
0	30865	360.5	350.5
0	30866	360.5	350.5
0	30867	360.5	349.5
0	30868	360.5	349.5
0	30869	360.5	348.5
0	30870	360.5	348.5
0	30871	360.5	347.5
0	30872	360.5	347.5
0	30873	360.5	346.5
0	30874	360.5	346.5
0	30875	360.5	345.5
0	30876	360.5	345.5
0	30877	360.5	344.5
0	30878	360.5	344.5
0	30879	360.5	343.5
0	30880	360.5	343.5
0	30881	360.5	342.5
0	30882	360.5	342.5
0	30883	360.5	341.5
0	30884	360.5	341.5
0	30885	360.5	340.5
0	30886	360.5	340.5
0	30887	360.5	339.5
0	30888	360.5	339.5
0	30889	360.5	338.5
0	30890	360.5	338.5
0	30891	360.5	337.5
0	30892	360.5	337.5
0	30893	360.5	336.5
0	30894	360.5	336.5
0	30895	360.5	335.5
0	30896	360.5	335.5
0	30897	360.5	334.5
0	30898	360.5	334.5
0	30899	360.5	333.5
0	30900	360.5	333.5
0	30901	360.5	332.5
0	30902	360.5	332.5
0	30903	360.5	331.5
0	30904	360.5	331.5
0	30905	360.5	330.5
0	30906	360.5	330.5
0	30907	360.5	329.5
0	30908	360.5	329.5
0	30909	360.5	328.5
0	30910	360.5	328.5
0	30911	360.5	327.5
0	30912	360.5	327.5
0	30913	360.5	326.5
0	30914	360.5	326.5
0	30915	360.5	325.5
0	30916	360.5	325.5
0	30917	360.5	324.5
0	30918	360.5	324.5
0	30919	360.5	323.5
0	30920	360.5	323.5
0	30921	360.5	322.5
0	30922	360.5	322.5
0	30923	360.5	321.5
0	30924	360.5	321.5
0	30925	360.5	320.5
0	30926	360.5	320.5
0	30927	360.5	319.5
0	30928	360.5	319.5
0	30929	360.5	318.5
0	30930	360.5	318.5
0	30931	360.5	317.5
0	30932	360.5	317.5
0	30933	360.5	316.5
0	30934	360.5	316.5
0	30935	360.5	315.5
0	30936	360.5	315.5
0	30937	360.5	314.5
0	30938	360.5	314.5
0	30939	360.5	313.5
0	30940	360.5	313.5
0	30941	360.5	312.5
0	30942	360.5	312.5
0	30943	360.5	311.5
0	30944	360.5	311.5
0	30945	360.5	310.5
0	30946	360.5	310.5
0	30947	360.5	309.5
0	30948	360.5	309.5
0	30949	360.5	308.5
0	30950	360.5	308.5
0	30951	360.5	307.5
0	30952	360.5	307.5
0	30953	360.5	306.5
0	30954	360.5	306.5
0	30955	360.5	305.5
0	30956	360.5	305.5
0	30957	360.5	304.5
0	30958	360.5	304.5
0	30959	360.5	303.5
0	30960	360.5	303.5
0	30961	360.5	302.5
0	30962	360.5	302.5
0	30963	360.5	301.5
0	30964	360.5	301.5
0	30965	360.5	201.5
0	30966	360.5	201.5
0	30967	360.5	101.5
0	30968	360.5	360.5
0	30969	360.5	359.5
0	30970	360.5	358.5
0	30971	360.5	357.5
0	30972	360.5	356.5
0	30973	360.5	355.5
0	30974	360.5	354.5
0	30975	360.5	353.5
0	30976	360.5	352.5
0	30977	360.5	351.5
0	30978	360.5	350.5
0	30979	360.5	349.5
0	30980	360.5	348.5
0	30981	360.5	347.5
0	30982	360.5	346.5
0	30983	360.5	345.5
0	30984	360.5	344.5
0	30985	360.5	343.5
0	30986	360.5	342.5
0	30987	360.5	341.5
0	30988	360.5	340.5
0	30989	360.5	339.5
0	30990	360.5	338.5
0	30991	360.5	337.5
0	30992	360.5	336.5
0	30993	360.5	335.5
0	30994	360.5	334.5
0	30995	360.5	333.5
0	30996	360.5	332.5
0	30997	360.5	331.5
0	30998	360.5	330.5
0	30999	360.5	329.5
0	31000	360.5	328.5
0	31001	360.5	327.5
0	31002	360.5	326.5
0	31003	360.5	325.5
0	31004	360.5	324.5
0	31005	360.5	323.5
0	31006	360.5	322.5
0	31007	360.5	321.5
0	31008	360.5	320.5
0	31009	360.5	319.5
0	31010	360.5	318.5
0	31011	360.5	317.5
0	31012	360.5	316.5
0	31013	360.5	315.5
0	31014	360.5	314.5
0	31015	360.5	313.5
0	31016	360.5	312.5
0	31017	360.5	311.5
0	31018	360.5	310.5
0	31019	360.5	309.5
0	31020	360.5	308.5
0	31021	360.5	307.5
0	31022	360.5	306.5
0	31023	360.5	305.5
0	31024	360.5	304.5
0	31025	360.5	303.5
0	31026	360.5	302.5
0	31027	360.5	301.5
0	31028	360.5	201.5
0	31029	360.5	101.5
0	31030	360.5	1.5
0	31183	361.5	301.5
0	31184	361.5	201.5
0	31185	361.5	101.5
0	31186	361.5	301.5
0	31187	361.5	301.5
0	31188	361.5	201.5
0	31189	361.5	201.5
0	31190	361.5	301.5
0	31191	361.5	101.5
0	31192	361.5	201.5
0	31193	361.5	101.5
0	31194	361.5	1.5
0	31347	362.5	301.5
0	31348	362.5	201.5
0	31349	362.5	101.5
0	31350	362.5	301.5
0	31351	362.5	301.5
0	31352	362.5	201.5
0	31353	362.5	201.5
0	31354	362.5	301.5
0	31355	362.5	101.5
0	31356	362.5	201.5
0	31357	362.5	101.5
0	31358	362.5	1.5
0	31511	363.5	301.5
0	31512	363.5	201.5
0	31513	363.5	101.5
0	31514	363.5	301.5
0	31515	363.5	301.5
0	31516	363.5	201.5
0	31517	363.5	201.5
0	31518	363.5	301.5
0	31519	363.5	101.5
0	31520	363.5	201.5
0	31521	363.5	101.5
0	31522	363.5	1.5
0	31675	364.5	301.5
0	31676	364.5	201.5
0	31677	364.5	101.5
0	31678	364.5	301.5
0	31679	364.5	301.5
0	31680	364.5	201.5
0	31681	364.5	201.5
0	31682	364.5	301.5
0	31683	364.5	101.5
0	31684	364.5	201.5
0	31685	364.5	101.5
0	31686	364.5	1.5
0	32107	365.1	365.1
0	32108	365.1	364.1
0	32109	365.1	363.1
0	32110	365.1	362.1
0	32111	365.1	361.1
0	32112	365.1	360.1
0	32113	365.1	359.1
0	32114	365.1	358.1
0	32115	365.1	357.1
0	32116	365.1	356.1
0	32117	365.1	355.1
0	32118	365.1	354.1
0	32119	365.1	353.1
0	32120	365.1	352.1
0	32121	365.1	351.1
0	32122	365.1	350.1
0	32123	365.1	349.1
0	32124	365.1	348.1
0	32125	365.1	347.1
0	32126	365.1	346.1
0	32127	365.1	345.1
0	32128	365.1	344.1
0	32129	365.1	343.1
0	32130	365.1	342.1
0	32131	365.1	341.1
0	32132	365.1	340.1
0	32133	365.1	339.1
0	32134	365.1	338.1
0	32135	365.1	337.1
0	32136	365.1	336.1
0	32137	365.1	335.1
0	32138	365.1	334.1
0	32139	365.1	333.1
0	32140	365.1	332.1
0	32141	365.1	331.1
0	32142	365.1	330.1
0	32143	365.1	329.1
0	32144	365.1	328.1
0	32145	365.1	327.1
0	32146	365.1	326.1
0	32147	365.1	325.1
0	32148	365.1	324.1
0	32149	365.1	323.1
0	32150	365.1	322.1
0	32151	365.1	321.1
0	32152	365.1	320.1
0	32153	365.1	319.1
0	32154	365.1	318.1
0	32155	365.1	317.1
0	32156	365.1	316.1
0	32157	365.1	315.1
0	32158	365.1	314.1
0	32159	365.1	313.1
0	32160	365.1	312.1
0	32161	365.1	311.1
0	32162	365.1	310.1
0	32163	365.1	309.1
0	32164	365.1	308.1
0	32165	365.1	307.1
0	32166	365.1	306.1
0	32167	365.1	305.1
0	32168	365.1	304.1
0	32169	365.1	303.1
0	32170	365.1	302.1
0	32290	365.5	301.5
0	32291	365.5	201.5
0	32292	365.5	101.5
0	32293	365.5	301.5
0	32294	365.5	301.5
0	32295	365.5	201.5
0	32296	365.5	201.5
0	32297	365.5	301.5
0	32298	365.5	101.5
0	32299	365.5	201.5
0	32300	365.5	101.5
0	32301	365.5	1.5
0	32455	366.5	301.5
0	32456	366.5	201.5
0	32457	366.5	101.5
0	32458	366.5	301.5
0	32459	366.5	301.5
0	32460	366.5	201.5
0	32461	366.5	201.5
0	32462	366.5	301.5
0	32463	366.5	101.5
0	32464	366.5	201.5
0	32465	366.5	101.5
0	32466	366.5	1.5
0	32620	367.5	301.5
0	32621	367.5	201.5
0	32622	367.5	101.5
0	32623	367.5	301.5
0	32624	367.5	301.5
0	32625	367.5	201.5
0	32626	367.5	201.5
0	32627	367.5	301.5
0	32628	367.5	101.5
0	32629	367.5	201.5
0	32630	367.5	101.5
0	32631	367.5	1.5
0	32785	368.5	301.5
0	32786	368.5	201.5
0	32787	368.5	101.5
0	32788	368.5	301.5
0	32789	368.5	301.5
0	32790	368.5	201.5
0	32791	368.5	201.5
0	32792	368.5	301.5
0	32793	368.5	101.5
0	32794	368.5	201.5
0	32795	368.5	101.5
0	32796	368.5	1.5
0	32950	369.5	301.5
0	32951	369.5	201.5
0	32952	369.5	101.5
0	32953	369.5	301.5
0	32954	369.5	301.5
0	32955	369.5	201.5
0	32956	369.5	201.5
0	32957	369.5	301.5
0	32958	369.5	101.5
0	32959	369.5	201.5
0	32960	369.5	101.5
0	32961	369.5	1.5
0	33113	370.5	301.5
0	33114	370.5	201.5
0	33115	370.5	101.5
0	33116	370.5	301.5
0	33117	370.5	301.5
0	33118	370.5	201.5
0	33119	370.5	201.5
0	33120	370.5	301.5
0	33121	370.5	101.5
0	33122	370.5	201.5
0	33123	370.5	101.5
0	33124	370.5	1.5
0	33270	371.5	301.5
0	33271	371.5	201.5
0	33272	371.5	101.5
0	33273	371.5	301.5
0	33274	371.5	301.5
0	33275	371.5	301.5
0	33276	371.5	201.5
0	33277	371.5	201.5
0	33278	371.5	101.5
0	33279	371.5	101.5
0	33280	371.5	1.5
0	33426	372.5	301.5
0	33427	372.5	201.5
0	33428	372.5	101.5
0	33429	372.5	301.5
0	33430	372.5	301.5
0	33431	372.5	301.5
0	33432	372.5	201.5
0	33433	372.5	201.5
0	33434	372.5	101.5
0	33435	372.5	101.5
0	33436	372.5	1.5
0	33582	373.5	301.5
0	33583	373.5	201.5
0	33584	373.5	101.5
0	33585	373.5	301.5
0	33586	373.5	301.5
0	33587	373.5	301.5
0	33588	373.5	201.5
0	33589	373.5	201.5
0	33590	373.5	101.5
0	33591	373.5	101.5
0	33592	373.5	1.5
0	33738	374.5	301.5
0	33739	374.5	201.5
0	33740	374.5	101.5
0	33741	374.5	301.5
0	33742	374.5	301.5
0	33743	374.5	301.5
0	33744	374.5	201.5
0	33745	374.5	201.5
0	33746	374.5	101.5
0	33747	374.5	101.5
0	33748	374.5	1.5
0	33866	375.5	301.5
0	33867	375.5	201.5
0	33868	375.5	101.5
0	33869	375.5	301.5
0	33870	375.5	301.5
0	33871	375.5	301.5
0	33872	375.5	201.5
0	33873	375.5	201.5
0	33874	375.5	101.5
0	33875	375.5	101.5
0	33876	375.5	1.5
0	33956	376.5	301.5
0	33957	376.5	101.5
0	33958	376.5	301.5
0	33959	376.5	101.5
0	33960	376.5	101.5
0	33961	376.5	1.5
0	34041	377.5	301.5
0	34042	377.5	101.5
0	34043	377.5	301.5
0	34044	377.5	101.5
0	34045	377.5	101.5
0	34046	377.5	1.5
0	34126	378.5	301.5
0	34127	378.5	101.5
0	34128	378.5	301.5
0	34129	378.5	101.5
0	34130	378.5	101.5
0	34131	378.5	1.5
0	34211	379.5	301.5
0	34212	379.5	101.5
0	34213	379.5	301.5
0	34214	379.5	101.5
0	34215	379.5	101.5
0	34216	379.5	1.5
0	34296	380.5	301.5
0	34297	380.5	101.5
0	34298	380.5	301.5
0	34299	380.5	101.5
0	34300	380.5	101.5
0	34301	380.5	1.5
0	34380	381.5	301.5
0	34381	381.5	101.5
0	34382	381.5	301.5
0	34383	381.5	101.5
0	34384	381.5	101.5
0	34385	381.5	1.5
0	34467	382.5	301.5
0	34468	382.5	101.5
0	34469	382.5	301.5
0	34470	382.5	101.5
0	34471	382.5	101.5
0	34472	382.5	1.5
0	34552	383.5	301.5
0	34553	383.5	101.5
0	34554	383.5	301.5
0	34555	383.5	101.5
0	34556	383.5	101.5
0	34557	383.5	1.5
0	34637	384.5	301.5
0	34638	384.5	101.5
0	34639	384.5	301.5
0	34640	384.5	101.5
0	34641	384.5	101.5
0	34642	384.5	1.5
0	35100	385.5	301.5
0	35101	385.5	101.5
0	35102	385.5	301.5
0	35103	385.5	101.5
0	35104	385.5	101.5
0	35105	385.5	1.5
0	35834	386.5	301.5
0	35835	386.5	311.5
0	35836	386.5	211.5
0	35837	386.5	310.5
0	35838	386.5	210.5
0	35839	386.5	309.5
0	35840	386.5	209.5
0	35841	386.5	308.5
0	35842	386.5	208.5
0	35843	386.5	307.5
0	35844	386.5	207.5
0	35845	386.5	306.5
0	35846	386.5	206.5
0	35847	386.5	305.5
0	35848	386.5	205.5
0	35849	386.5	304.5
0	35850	386.5	204.5
0	35851	386.5	303.5
0	35852	386.5	203.5
0	35853	386.5	302.5
0	35854	386.5	202.5
0	35855	386.5	201.5
0	35856	386.5	101.5
0	35857	386.5	301.5
0	35858	386.5	311.5
0	35859	386.5	311.5
0	35860	386.5	211.5
0	35861	386.5	211.5
0	35862	386.5	310.5
0	35863	386.5	310.5
0	35864	386.5	210.5
0	35865	386.5	210.5
0	35866	386.5	309.5
0	35867	386.5	309.5
0	35868	386.5	209.5
0	35869	386.5	209.5
0	35870	386.5	308.5
0	35871	386.5	308.5
0	35872	386.5	208.5
0	35873	386.5	208.5
0	35874	386.5	307.5
0	35875	386.5	307.5
0	35876	386.5	207.5
0	35877	386.5	207.5
0	35878	386.5	306.5
0	35879	386.5	306.5
0	35880	386.5	206.5
0	35881	386.5	206.5
0	35882	386.5	305.5
0	35883	386.5	305.5
0	35884	386.5	205.5
0	35885	386.5	205.5
0	35886	386.5	304.5
0	35887	386.5	304.5
0	35888	386.5	204.5
0	35889	386.5	204.5
0	35890	386.5	303.5
0	35891	386.5	303.5
0	35892	386.5	203.5
0	35893	386.5	203.5
0	35894	386.5	302.5
0	35895	386.5	302.5
0	35896	386.5	202.5
0	35897	386.5	202.5
0	35898	386.5	301.5
0	35899	386.5	201.5
0	35900	386.5	201.5
0	35901	386.5	101.5
0	35902	386.5	311.5
0	35903	386.5	211.5
0	35904	386.5	310.5
0	35905	386.5	210.5
0	35906	386.5	309.5
0	35907	386.5	209.5
0	35908	386.5	308.5
0	35909	386.5	208.5
0	35910	386.5	307.5
0	35911	386.5	207.5
0	35912	386.5	306.5
0	35913	386.5	206.5
0	35914	386.5	305.5
0	35915	386.5	205.5
0	35916	386.5	304.5
0	35917	386.5	204.5
0	35918	386.5	303.5
0	35919	386.5	203.5
0	35920	386.5	302.5
0	35921	386.5	202.5
0	35922	386.5	301.5
0	35923	386.5	201.5
0	35924	386.5	101.5
0	35925	386.5	1.5
0	36077	387.5	301.5
0	36078	387.5	201.5
0	36079	387.5	101.5
0	36080	387.5	301.5
0	36081	387.5	201.5
0	36082	387.5	101.5
0	36083	387.5	301.5
0	36084	387.5	201.5
0	36085	387.5	101.5
0	36086	387.5	1.5
0	36272	388.5	301.5
0	36273	388.5	201.5
0	36274	388.5	302.5
0	36275	388.5	202.5
0	36276	388.5	101.5
0	36277	388.5	301.5
0	36278	388.5	302.5
0	36279	388.5	201.5
0	36280	388.5	202.5
0	36281	388.5	101.5
0	36282	388.5	301.5
0	36283	388.5	301.5
0	36284	388.5	201.5
0	36285	388.5	201.5
0	36286	388.5	101.5
0	36287	388.5	1.5
0	36447	389.5	301.5
0	36448	389.5	201.5
0	36449	389.5	101.5
0	36450	389.5	301.5
0	36451	389.5	301.5
0	36452	389.5	201.5
0	36453	389.5	201.5
0	36454	389.5	101.5
0	36455	389.5	301.5
0	36456	389.5	201.5
0	36457	389.5	101.5
0	36458	389.5	1.5
0	36618	390.5	301.5
0	36619	390.5	201.5
0	36620	390.5	101.5
0	36621	390.5	301.5
0	36622	390.5	301.5
0	36623	390.5	201.5
0	36624	390.5	201.5
0	36625	390.5	101.5
0	36626	390.5	301.5
0	36627	390.5	201.5
0	36628	390.5	101.5
0	36629	390.5	1.5
0	36789	391.5	301.5
0	36790	391.5	201.5
0	36791	391.5	101.5
0	36792	391.5	301.5
0	36793	391.5	301.5
0	36794	391.5	201.5
0	36795	391.5	201.5
0	36796	391.5	101.5
0	36797	391.5	301.5
0	36798	391.5	201.5
0	36799	391.5	101.5
0	36800	391.5	1.5
0	36960	392.5	301.5
0	36961	392.5	201.5
0	36962	392.5	101.5
0	36963	392.5	301.5
0	36964	392.5	301.5
0	36965	392.5	201.5
0	36966	392.5	201.5
0	36967	392.5	101.5
0	36968	392.5	301.5
0	36969	392.5	201.5
0	36970	392.5	101.5
0	36971	392.5	1.5
0	37130	393.5	301.5
0	37131	393.5	201.5
0	37132	393.5	101.5
0	37133	393.5	301.5
0	37134	393.5	301.5
0	37135	393.5	201.5
0	37136	393.5	201.5
0	37137	393.5	101.5
0	37138	393.5	301.5
0	37139	393.5	201.5
0	37140	393.5	101.5
0	37141	393.5	1.5
0	37293	394.5	301.5
0	37294	394.5	201.5
0	37295	394.5	101.5
0	37296	394.5	301.5
0	37297	394.5	301.5
0	37298	394.5	201.5
0	37299	394.5	201.5
0	37300	394.5	101.5
0	37301	394.5	301.5
0	37302	394.5	201.5
0	37303	394.5	101.5
0	37304	394.5	1.5
0	37470	395.5	301.5
0	37471	395.5	302.5
0	37472	395.5	201.5
0	37473	395.5	101.5
0	37474	395.5	302.5
0	37475	395.5	301.5
0	37476	395.5	201.5
0	37477	395.5	101.5
0	37478	395.5	301.5
0	37479	395.5	201.5
0	37480	395.5	101.5
0	37481	395.5	1.5
0	37655	396.5	301.5
0	37656	396.5	201.5
0	37657	396.5	302.5
0	37658	396.5	202.5
0	37659	396.5	101.5
0	37660	396.5	301.5
0	37661	396.5	302.5
0	37662	396.5	201.5
0	37663	396.5	202.5
0	37664	396.5	101.5
0	37665	396.5	301.5
0	37666	396.5	301.5
0	37667	396.5	201.5
0	37668	396.5	201.5
0	37669	396.5	101.5
0	37670	396.5	1.5
0	37806	397.5	301.5
0	37807	397.5	201.5
0	37808	397.5	101.5
0	37809	397.5	301.5
0	37810	397.5	201.5
0	37811	397.5	101.5
0	37812	397.5	301.5
0	37813	397.5	201.5
0	37814	397.5	101.5
0	37815	397.5	1.5
0	37962	398.5	301.5
0	37963	398.5	302.5
0	37964	398.5	201.5
0	37965	398.5	101.5
0	37966	398.5	302.5
0	37967	398.5	301.5
0	37968	398.5	201.5
0	37969	398.5	101.5
0	37970	398.5	301.5
0	37971	398.5	201.5
0	37972	398.5	101.5
0	37973	398.5	1.5
0	38106	399.5	301.5
0	38107	399.5	201.5
0	38108	399.5	101.5
0	38109	399.5	301.5
0	38110	399.5	201.5
0	38111	399.5	101.5
0	38112	399.5	301.5
0	38113	399.5	201.5
0	38114	399.5	101.5
0	38115	399.5	1.5
0	38247	400.5	301.5
0	38248	400.5	201.5
0	38249	400.5	101.5
0	38250	400.5	301.5
0	38251	400.5	201.5
0	38252	400.5	101.5
0	38253	400.5	301.5
0	38254	400.5	201.5
0	38255	400.5	101.5
0	38256	400.5	1.5
0	38387	401.5	301.5
0	38388	401.5	201.5
0	38389	401.5	101.5
0	38390	401.5	301.5
0	38391	401.5	201.5
0	38392	401.5	101.5
0	38393	401.5	301.5
0	38394	401.5	201.5
0	38395	401.5	101.5
0	38396	401.5	1.5
0	38527	402.5	301.5
0	38528	402.5	201.5
0	38529	402.5	101.5
0	38530	402.5	301.5
0	38531	402.5	201.5
0	38532	402.5	101.5
0	38533	402.5	301.5
0	38534	402.5	201.5
0	38535	402.5	101.5
0	38536	402.5	1.5
0	38667	403.5	301.5
0	38668	403.5	201.5
0	38669	403.5	101.5
0	38670	403.5	301.5
0	38671	403.5	201.5
0	38672	403.5	101.5
0	38673	403.5	301.5
0	38674	403.5	201.5
0	38675	403.5	101.5
0	38676	403.5	1.5
0	38807	404.5	301.5
0	38808	404.5	201.5
0	38809	404.5	101.5
0	38810	404.5	301.5
0	38811	404.5	201.5
0	38812	404.5	101.5
0	38813	404.5	301.5
0	38814	404.5	201.5
0	38815	404.5	101.5
0	38816	404.5	1.5
0	38947	405.5	301.5
0	38948	405.5	201.5
0	38949	405.5	101.5
0	38950	405.5	301.5
0	38951	405.5	201.5
0	38952	405.5	101.5
0	38953	405.5	301.5
0	38954	405.5	201.5
0	38955	405.5	101.5
0	38956	405.5	1.5
0	39087	406.5	301.5
0	39088	406.5	201.5
0	39089	406.5	101.5
0	39090	406.5	301.5
0	39091	406.5	201.5
0	39092	406.5	101.5
0	39093	406.5	301.5
0	39094	406.5	201.5
0	39095	406.5	101.5
0	39096	406.5	1.5
0	39228	407.5	301.5
0	39229	407.5	201.5
0	39230	407.5	101.5
0	39231	407.5	301.5
0	39232	407.5	201.5
0	39233	407.5	101.5
0	39234	407.5	301.5
0	39235	407.5	201.5
0	39236	407.5	101.5
0	39237	407.5	1.5
0	39373	408.5	301.5
0	39374	408.5	201.5
0	39375	408.5	101.5
0	39376	408.5	301.5
0	39377	408.5	201.5
0	39378	408.5	101.5
0	39379	408.5	301.5
0	39380	408.5	201.5
0	39381	408.5	101.5
0	39382	408.5	1.5
0	39528	409.5	302.5
0	39529	409.5	301.5
0	39530	409.5	201.5
0	39531	409.5	101.5
0	39532	409.5	302.5
0	39533	409.5	301.5
0	39534	409.5	201.5
0	39535	409.5	101.5
0	39536	409.5	301.5
0	39537	409.5	201.5
0	39538	409.5	101.5
0	39539	409.5	1.5
0	39671	410.5	301.5
0	39672	410.5	201.5
0	39673	410.5	101.5
0	39674	410.5	301.5
0	39675	410.5	201.5
0	39676	410.5	101.5
0	39677	410.5	301.5
0	39678	410.5	201.5
0	39679	410.5	101.5
0	39680	410.5	1.5
0	39812	411.5	301.5
0	39813	411.5	201.5
0	39814	411.5	101.5
0	39815	411.5	301.5
0	39816	411.5	201.5
0	39817	411.5	101.5
0	39818	411.5	301.5
0	39819	411.5	201.5
0	39820	411.5	101.5
0	39821	411.5	1.5
0	39953	412.5	301.5
0	39954	412.5	201.5
0	39955	412.5	101.5
0	39956	412.5	301.5
0	39957	412.5	201.5
0	39958	412.5	101.5
0	39959	412.5	301.5
0	39960	412.5	201.5
0	39961	412.5	101.5
0	39962	412.5	1.5
0	40094	413.5	301.5
0	40095	413.5	201.5
0	40096	413.5	101.5
0	40097	413.5	301.5
0	40098	413.5	201.5
0	40099	413.5	101.5
0	40100	413.5	301.5
0	40101	413.5	201.5
0	40102	413.5	101.5
0	40103	413.5	1.5
0	40235	414.5	301.5
0	40236	414.5	201.5
0	40237	414.5	101.5
0	40238	414.5	301.5
0	40239	414.5	201.5
0	40240	414.5	101.5
0	40241	414.5	301.5
0	40242	414.5	201.5
0	40243	414.5	101.5
0	40244	414.5	1.5
0	40376	415.5	301.5
0	40377	415.5	201.5
0	40378	415.5	101.5
0	40379	415.5	301.5
0	40380	415.5	201.5
0	40381	415.5	101.5
0	40382	415.5	301.5
0	40383	415.5	201.5
0	40384	415.5	101.5
0	40385	415.5	1.5
0	40518	416.5	301.5
0	40519	416.5	201.5
0	40520	416.5	101.5
0	40521	416.5	301.5
0	40522	416.5	201.5
0	40523	416.5	101.5
0	40524	416.5	301.5
0	40525	416.5	201.5
0	40526	416.5	101.5
0	40527	416.5	1.5
0	40659	417.5	301.5
0	40660	417.5	201.5
0	40661	417.5	101.5
0	40662	417.5	301.5
0	40663	417.5	201.5
0	40664	417.5	101.5
0	40665	417.5	301.5
0	40666	417.5	201.5
0	40667	417.5	101.5
0	40668	417.5	1.5
0	40800	418.5	301.5
0	40801	418.5	201.5
0	40802	418.5	101.5
0	40803	418.5	301.5
0	40804	418.5	201.5
0	40805	418.5	101.5
0	40806	418.5	301.5
0	40807	418.5	201.5
0	40808	418.5	101.5
0	40809	418.5	1.5
0	40941	419.5	301.5
0	40942	419.5	201.5
0	40943	419.5	101.5
0	40944	419.5	301.5
0	40945	419.5	201.5
0	40946	419.5	101.5
0	40947	419.5	301.5
0	40948	419.5	201.5
0	40949	419.5	101.5
0	40950	419.5	1.5
0	41082	420.5	301.5
0	41083	420.5	201.5
0	41084	420.5	101.5
0	41085	420.5	301.5
0	41086	420.5	201.5
0	41087	420.5	101.5
0	41088	420.5	301.5
0	41089	420.5	201.5
0	41090	420.5	101.5
0	41091	420.5	1.5
0	41223	421.5	301.5
0	41224	421.5	201.5
0	41225	421.5	101.5
0	41226	421.5	301.5
0	41227	421.5	201.5
0	41228	421.5	101.5
0	41229	421.5	301.5
0	41230	421.5	201.5
0	41231	421.5	101.5
0	41232	421.5	1.5
0	41364	422.5	301.5
0	41365	422.5	201.5
0	41366	422.5	101.5
0	41367	422.5	301.5
0	41368	422.5	201.5
0	41369	422.5	101.5
0	41370	422.5	301.5
0	41371	422.5	201.5
0	41372	422.5	101.5
0	41373	422.5	1.5
0	41505	423.5	301.5
0	41506	423.5	201.5
0	41507	423.5	101.5
0	41508	423.5	301.5
0	41509	423.5	201.5
0	41510	423.5	101.5
0	41511	423.5	301.5
0	41512	423.5	201.5
0	41513	423.5	101.5
0	41514	423.5	1.5
0	41625	424.5	301.5
0	41626	424.5	201.5
0	41627	424.5	101.5
0	41628	424.5	301.5
0	41629	424.5	201.5
0	41630	424.5	101.5
0	41631	424.5	301.5
0	41632	424.5	201.5
0	41633	424.5	101.5
0	41634	424.5	1.5
0	41696	425.5	301.5
0	41697	425.5	201.5
0	41698	425.5	101.5
0	41822	426.5	301.5
0	41823	426.5	201.5
0	41824	426.5	101.5
0	42052	427.5	301.5
0	42053	427.5	201.5
0	42054	427.5	101.5
0	42055	427.5	303.5
0	42056	427.5	203.5
0	42057	427.5	103.5
0	42058	427.5	303.5
0	42059	427.5	203.5
0	42060	427.5	103.5
0	42061	427.5	3.5
0	42062	427.5	302.5
0	42063	427.5	202.5
0	42064	427.5	102.5
0	42065	427.5	302.5
0	42066	427.5	202.5
0	42067	427.5	102.5
0	42068	427.5	2.5
0	42069	427.5	301.5
0	42070	427.5	201.5
0	42071	427.5	101.5
0	42072	427.5	301.5
0	42073	427.5	201.5
0	42074	427.5	101.5
0	42075	427.5	1.5
0	42204	428.5	301.5
0	42205	428.5	201.5
0	42206	428.5	101.5
0	42207	428.5	301.5
0	42208	428.5	201.5
0	42209	428.5	101.5
0	42210	428.5	301.5
0	42211	428.5	201.5
0	42212	428.5	101.5
0	42213	428.5	1.5
0	42329	429.5	301.5
0	42330	429.5	201.5
0	42331	429.5	101.5
0	42332	429.5	301.5
0	42333	429.5	201.5
0	42334	429.5	101.5
0	42335	429.5	301.5
0	42336	429.5	201.5
0	42337	429.5	101.5
0	42338	429.5	1.5
0	42450	430.5	301.5
0	42451	430.5	201.5
0	42452	430.5	301.5
0	42453	430.5	201.5
0	42454	430.5	101.5
0	42455	430.5	1.5
0	42624	431.5	301.5
0	42625	431.5	201.5
0	42626	431.5	302.5
0	42627	431.5	202.5
0	42628	431.5	102.5
0	42629	431.5	101.5
0	42630	431.5	302.5
0	42631	431.5	202.5
0	42632	431.5	102.5
0	42633	431.5	301.5
0	42634	431.5	201.5
0	42635	431.5	101.5
0	42636	431.5	301.5
0	42637	431.5	201.5
0	42638	431.5	101.5
0	42639	431.5	1.5
0	42767	432.5	301.5
0	42768	432.5	201.5
0	42769	432.5	101.5
0	42770	432.5	301.5
0	42771	432.5	201.5
0	42772	432.5	101.5
0	42773	432.5	301.5
0	42774	432.5	201.5
0	42775	432.5	101.5
0	42776	432.5	1.5
0	42908	433.5	301.5
0	42909	433.5	201.5
0	42910	433.5	101.5
0	42911	433.5	301.5
0	42912	433.5	201.5
0	42913	433.5	101.5
0	42914	433.5	301.5
0	42915	433.5	201.5
0	42916	433.5	101.5
0	42917	433.5	1.5
0	43060	434.5	302.5
0	43061	434.5	301.5
0	43062	434.5	201.5
0	43063	434.5	101.5
0	43064	434.5	302.5
0	43065	434.5	301.5
0	43066	434.5	201.5
0	43067	434.5	101.5
0	43068	434.5	301.5
0	43069	434.5	201.5
0	43070	434.5	101.5
0	43071	434.5	1.5
0	43200	435.5	301.5
0	43201	435.5	201.5
0	43202	435.5	101.5
0	43203	435.5	301.5
0	43204	435.5	201.5
0	43205	435.5	101.5
0	43206	435.5	301.5
0	43207	435.5	201.5
0	43208	435.5	101.5
0	43209	435.5	1.5
0	43340	436.5	301.5
0	43341	436.5	201.5
0	43342	436.5	101.5
0	43343	436.5	301.5
0	43344	436.5	201.5
0	43345	436.5	101.5
0	43346	436.5	301.5
0	43347	436.5	201.5
0	43348	436.5	101.5
0	43349	436.5	1.5
0	43478	437.5	301.5
0	43479	437.5	201.5
0	43480	437.5	101.5
0	43481	437.5	301.5
0	43482	437.5	201.5
0	43483	437.5	101.5
0	43484	437.5	301.5
0	43485	437.5	201.5
0	43486	437.5	101.5
0	43487	437.5	1.5
0	43616	438.5	301.5
0	43617	438.5	201.5
0	43618	438.5	101.5
0	43619	438.5	301.5
0	43620	438.5	201.5
0	43621	438.5	101.5
0	43622	438.5	301.5
0	43623	438.5	201.5
0	43624	438.5	101.5
0	43625	438.5	1.5
0	43754	439.5	301.5
0	43755	439.5	201.5
0	43756	439.5	101.5
0	43757	439.5	301.5
0	43758	439.5	201.5
0	43759	439.5	101.5
0	43760	439.5	301.5
0	43761	439.5	201.5
0	43762	439.5	101.5
0	43763	439.5	1.5
0	43892	440.5	301.5
0	43893	440.5	201.5
0	43894	440.5	101.5
0	43895	440.5	301.5
0	43896	440.5	201.5
0	43897	440.5	101.5
0	43898	440.5	301.5
0	43899	440.5	201.5
0	43900	440.5	101.5
0	43901	440.5	1.5
0	44030	441.5	301.5
0	44031	441.5	201.5
0	44032	441.5	101.5
0	44033	441.5	301.5
0	44034	441.5	201.5
0	44035	441.5	101.5
0	44036	441.5	301.5
0	44037	441.5	201.5
0	44038	441.5	101.5
0	44039	441.5	1.5
0	44168	442.5	301.5
0	44169	442.5	201.5
0	44170	442.5	101.5
0	44171	442.5	301.5
0	44172	442.5	201.5
0	44173	442.5	101.5
0	44174	442.5	301.5
0	44175	442.5	201.5
0	44176	442.5	101.5
0	44177	442.5	1.5
0	44306	443.5	301.5
0	44307	443.5	201.5
0	44308	443.5	101.5
0	44309	443.5	301.5
0	44310	443.5	201.5
0	44311	443.5	101.5
0	44312	443.5	301.5
0	44313	443.5	201.5
0	44314	443.5	101.5
0	44315	443.5	1.5
0	44444	444.5	301.5
0	44445	444.5	201.5
0	44446	444.5	101.5
0	44447	444.5	301.5
0	44448	444.5	201.5
0	44449	444.5	101.5
0	44450	444.5	301.5
0	44451	444.5	201.5
0	44452	444.5	101.5
0	44453	444.5	1.5
0	44582	445.5	301.5
0	44583	445.5	201.5
0	44584	445.5	101.5
0	44585	445.5	301.5
0	44586	445.5	201.5
0	44587	445.5	101.5
0	44588	445.5	301.5
0	44589	445.5	201.5
0	44590	445.5	101.5
0	44591	445.5	1.5
0	44720	446.5	301.5
0	44721	446.5	201.5
0	44722	446.5	101.5
0	44723	446.5	301.5
0	44724	446.5	201.5
0	44725	446.5	101.5
0	44726	446.5	301.5
0	44727	446.5	201.5
0	44728	446.5	101.5
0	44729	446.5	1.5
0	44858	447.5	301.5
0	44859	447.5	201.5
0	44860	447.5	101.5
0	44861	447.5	301.5
0	44862	447.5	201.5
0	44863	447.5	101.5
0	44864	447.5	301.5
0	44865	447.5	201.5
0	44866	447.5	101.5
0	44867	447.5	1.5
0	44995	448.5	301.5
0	44996	448.5	201.5
0	44997	448.5	101.5
0	44998	448.5	301.5
0	44999	448.5	201.5
0	45000	448.5	101.5
0	45001	448.5	301.5
0	45002	448.5	201.5
0	45003	448.5	101.5
0	45004	448.5	1.5
0	45124	449.5	301.5
0	45125	449.5	302.5
0	45126	449.5	202.5
0	45127	449.5	201.5
0	45128	449.5	101.5
0	45129	449.5	301.5
0	45130	449.5	201.5
0	45131	449.5	101.5
0	45132	449.5	301.5
0	45133	449.5	201.5
0	45134	449.5	101.5
0	45135	449.5	1.5
0	45209	450.5	301.5
0	45210	450.5	201.5
0	45211	450.5	101.5
0	45302	451.5	301.5
0	45303	451.5	201.5
0	45304	451.5	101.5
0	45305	451.5	301.5
0	45306	451.5	201.5
0	45307	451.5	101.5
0	45308	451.5	1.5
0	45394	452.5	301.5
0	45395	452.5	201.5
0	45396	452.5	101.5
0	45525	453.5	301.5
0	45526	453.5	201.5
0	45527	453.5	101.5
0	45528	453.5	302.5
0	45529	453.5	202.5
0	45530	453.5	102.5
0	45531	453.5	2.5
0	45532	453.5	301.5
0	45533	453.5	201.5
0	45534	453.5	101.5
0	45535	453.5	1.5
0	45635	454.5	301.5
0	45636	454.5	201.5
0	45637	454.5	101.5
0	45638	454.5	301.5
0	45639	454.5	201.5
0	45640	454.5	101.5
0	45641	454.5	1.5
0	45741	455.5	301.5
0	45742	455.5	201.5
0	45743	455.5	101.5
0	45744	455.5	301.5
0	45745	455.5	201.5
0	45746	455.5	101.5
0	45747	455.5	1.5
0	46337	456.5	301.5
0	46338	456.5	201.5
0	46339	456.5	101.5
0	46340	456.5	301.5
0	46341	456.5	201.5
0	46342	456.5	101.5
0	46343	456.5	1.5
0	47982	457.4	361.4
0	47983	457.4	261.4
0	47984	457.4	360.4
0	47985	457.4	260.4
0	47986	457.4	359.4
0	47987	457.4	259.4
0	47988	457.4	358.4
0	47989	457.4	258.4
0	47990	457.4	357.4
0	47991	457.4	257.4
0	47992	457.4	356.4
0	47993	457.4	256.4
0	47994	457.4	355.4
0	47995	457.4	255.4
0	47996	457.4	354.4
0	47997	457.4	254.4
0	47998	457.4	353.4
0	47999	457.4	253.4
0	48000	457.4	352.4
0	48001	457.4	252.4
0	48002	457.4	351.4
0	48003	457.4	251.4
0	48004	457.4	350.4
0	48005	457.4	250.4
0	48006	457.4	349.4
0	48007	457.4	249.4
0	48008	457.4	348.4
0	48009	457.4	248.4
0	48010	457.4	347.4
0	48011	457.4	247.4
0	48012	457.4	346.4
0	48013	457.4	246.4
0	48014	457.4	345.4
0	48015	457.4	245.4
0	48016	457.4	344.4
0	48017	457.4	244.4
0	48018	457.4	343.4
0	48019	457.4	243.4
0	48020	457.4	342.4
0	48021	457.4	242.4
0	48022	457.4	341.4
0	48023	457.4	241.4
0	48024	457.4	340.4
0	48025	457.4	240.4
0	48026	457.4	339.4
0	48027	457.4	239.4
0	48028	457.4	338.4
0	48029	457.4	238.4
0	48030	457.4	337.4
0	48031	457.4	237.4
0	48032	457.4	336.4
0	48033	457.4	236.4
0	48034	457.4	335.4
0	48035	457.4	235.4
0	48036	457.4	334.4
0	48037	457.4	234.4
0	48038	457.4	333.4
0	48039	457.4	233.4
0	48040	457.4	332.4
0	48041	457.4	232.4
0	48042	457.4	331.4
0	48043	457.4	231.4
0	48044	457.4	330.4
0	48045	457.4	230.4
0	48046	457.4	329.4
0	48047	457.4	229.4
0	48048	457.4	328.4
0	48049	457.4	228.4
0	48050	457.4	327.4
0	48051	457.4	227.4
0	48052	457.4	326.4
0	48053	457.4	226.4
0	48054	457.4	325.4
0	48055	457.4	225.4
0	48056	457.4	324.4
0	48057	457.4	224.4
0	48058	457.4	323.4
0	48059	457.4	223.4
0	48060	457.4	322.4
0	48061	457.4	222.4
0	48062	457.4	321.4
0	48063	457.4	221.4
0	48064	457.4	320.4
0	48065	457.4	220.4
0	48066	457.4	319.4
0	48067	457.4	219.4
0	48068	457.4	318.4
0	48069	457.4	218.4
0	48070	457.4	317.4
0	48071	457.4	217.4
0	48072	457.4	316.4
0	48073	457.4	216.4
0	48074	457.4	315.4
0	48075	457.4	215.4
0	48076	457.4	314.4
0	48077	457.4	214.4
0	48078	457.4	313.4
0	48079	457.4	213.4
0	48080	457.4	312.4
0	48081	457.4	212.4
0	48082	457.4	311.4
0	48083	457.4	211.4
0	48084	457.4	310.4
0	48085	457.4	210.4
0	48086	457.4	309.4
0	48087	457.4	209.4
0	48088	457.4	308.4
0	48089	457.4	208.4
0	48090	457.4	307.4
0	48091	457.4	207.4
0	48092	457.4	306.4
0	48093	457.4	206.4
0	48094	457.4	305.4
0	48095	457.4	205.4
0	48096	457.4	304.4
0	48097	457.4	204.4
0	48098	457.4	303.4
0	48099	457.4	203.4
0	48100	457.4	302.4
0	48101	457.4	202.4
0	48102	457.4	361.4
0	48103	457.4	261.4
0	48104	457.4	360.4
0	48105	457.4	260.4
0	48106	457.4	359.4
0	48107	457.4	259.4
0	48108	457.4	358.4
0	48109	457.4	258.4
0	48110	457.4	357.4
0	48111	457.4	257.4
0	48112	457.4	356.4
0	48113	457.4	256.4
0	48114	457.4	355.4
0	48115	457.4	255.4
0	48116	457.4	354.4
0	48117	457.4	254.4
0	48118	457.4	353.4
0	48119	457.4	253.4
0	48120	457.4	352.4
0	48121	457.4	252.4
0	48122	457.4	351.4
0	48123	457.4	251.4
0	48124	457.4	350.4
0	48125	457.4	250.4
0	48126	457.4	349.4
0	48127	457.4	249.4
0	48128	457.4	348.4
0	48129	457.4	248.4
0	48130	457.4	347.4
0	48131	457.4	247.4
0	48132	457.4	346.4
0	48133	457.4	246.4
0	48134	457.4	345.4
0	48135	457.4	245.4
0	48136	457.4	344.4
0	48137	457.4	244.4
0	48138	457.4	343.4
0	48139	457.4	243.4
0	48140	457.4	342.4
0	48141	457.4	242.4
0	48142	457.4	341.4
0	48143	457.4	241.4
0	48144	457.4	340.4
0	48145	457.4	240.4
0	48146	457.4	339.4
0	48147	457.4	239.4
0	48148	457.4	338.4
0	48149	457.4	238.4
0	48150	457.4	337.4
0	48151	457.4	237.4
0	48152	457.4	336.4
0	48153	457.4	236.4
0	48154	457.4	335.4
0	48155	457.4	235.4
0	48156	457.4	334.4
0	48157	457.4	234.4
0	48158	457.4	333.4
0	48159	457.4	233.4
0	48160	457.4	332.4
0	48161	457.4	232.4
0	48162	457.4	331.4
0	48163	457.4	231.4
0	48164	457.4	330.4
0	48165	457.4	230.4
0	48166	457.4	329.4
0	48167	457.4	229.4
0	48168	457.4	328.4
0	48169	457.4	228.4
0	48170	457.4	327.4
0	48171	457.4	227.4
0	48172	457.4	326.4
0	48173	457.4	226.4
0	48174	457.4	325.4
0	48175	457.4	225.4
0	48176	457.4	324.4
0	48177	457.4	224.4
0	48178	457.4	323.4
0	48179	457.4	223.4
0	48180	457.4	322.4
0	48181	457.4	222.4
0	48182	457.4	321.4
0	48183	457.4	221.4
0	48184	457.4	320.4
0	48185	457.4	220.4
0	48186	457.4	319.4
0	48187	457.4	219.4
0	48188	457.4	318.4
0	48189	457.4	218.4
0	48190	457.4	317.4
0	48191	457.4	217.4
0	48192	457.4	316.4
0	48193	457.4	216.4
0	48194	457.4	315.4
0	48195	457.4	215.4
0	48196	457.4	314.4
0	48197	457.4	214.4
0	48198	457.4	313.4
0	48199	457.4	213.4
0	48200	457.4	312.4
0	48201	457.4	212.4
0	48202	457.4	311.4
0	48203	457.4	211.4
0	48204	457.4	310.4
0	48205	457.4	210.4
0	48206	457.4	309.4
0	48207	457.4	209.4
0	48208	457.4	308.4
0	48209	457.4	208.4
0	48210	457.4	307.4
0	48211	457.4	207.4
0	48212	457.4	306.4
0	48213	457.4	206.4
0	48214	457.4	305.4
0	48215	457.4	205.4
0	48216	457.4	304.4
0	48217	457.4	204.4
0	48218	457.4	303.4
0	48219	457.4	203.4
0	48220	457.4	302.4
0	48221	457.4	202.4
0	48268	457.5	301.5
0	48269	457.5	201.5
0	48270	457.5	101.5
0	48271	457.5	301.5
0	48272	457.5	201.5
0	48273	457.5	301.5
0	48274	457.5	201.5
0	48275	457.5	101.5
0	48276	457.5	1.5
0	48399	458.5	301.5
0	48400	458.5	201.5
0	48401	458.5	101.5
0	48402	458.5	301.5
0	48403	458.5	201.5
0	48404	458.5	301.5
0	48405	458.5	201.5
0	48406	458.5	101.5
0	48407	458.5	1.5
0	49431	459.5	301.5
0	49432	459.5	201.5
0	49433	459.5	101.5
0	49434	459.5	301.5
0	49435	459.5	201.5
0	49436	459.5	301.5
0	49437	459.5	201.5
0	49438	459.5	101.5
0	49439	459.5	1.5
0	50965	460.5	460.5
0	50966	460.5	459.5
0	50967	460.5	458.5
0	50968	460.5	457.5
0	50969	460.5	456.5
0	50970	460.5	455.5
0	50971	460.5	454.5
0	50972	460.5	453.5
0	50973	460.5	452.5
0	50974	460.5	451.5
0	50975	460.5	450.5
0	50976	460.5	449.5
0	50977	460.5	448.5
0	50978	460.5	447.5
0	50979	460.5	446.5
0	50980	460.5	445.5
0	50981	460.5	444.5
0	50982	460.5	443.5
0	50983	460.5	442.5
0	50984	460.5	441.5
0	50985	460.5	440.5
0	50986	460.5	439.5
0	50987	460.5	438.5
0	50988	460.5	437.5
0	50989	460.5	436.5
0	50990	460.5	435.5
0	50991	460.5	434.5
0	50992	460.5	433.5
0	50993	460.5	432.5
0	50994	460.5	431.5
0	50995	460.5	430.5
0	50996	460.5	429.5
0	50997	460.5	428.5
0	50998	460.5	427.5
0	50999	460.5	426.5
0	51000	460.5	425.5
0	51001	460.5	424.5
0	51002	460.5	423.5
0	51003	460.5	422.5
0	51004	460.5	421.5
0	51005	460.5	420.5
0	51006	460.5	419.5
0	51007	460.5	418.5
0	51008	460.5	417.5
0	51009	460.5	416.5
0	51010	460.5	415.5
0	51011	460.5	414.5
0	51012	460.5	413.5
0	51013	460.5	412.5
0	51014	460.5	411.5
0	51015	460.5	410.5
0	51016	460.5	409.5
0	51017	460.5	408.5
0	51018	460.5	407.5
0	51019	460.5	406.5
0	51020	460.5	405.5
0	51021	460.5	404.5
0	51022	460.5	403.5
0	51023	460.5	402.5
0	51024	460.5	401.5
0	51025	460.5	301.5
0	51026	460.5	302.5
0	51027	460.5	201.5
0	51028	460.5	101.5
0	51029	460.5	460.5
0	51030	460.5	459.5
0	51031	460.5	458.5
0	51032	460.5	457.5
0	51033	460.5	456.5
0	51034	460.5	455.5
0	51035	460.5	454.5
0	51036	460.5	453.5
0	51037	460.5	452.5
0	51038	460.5	451.5
0	51039	460.5	450.5
0	51040	460.5	449.5
0	51041	460.5	448.5
0	51042	460.5	447.5
0	51043	460.5	446.5
0	51044	460.5	445.5
0	51045	460.5	444.5
0	51046	460.5	443.5
0	51047	460.5	442.5
0	51048	460.5	441.5
0	51049	460.5	440.5
0	51050	460.5	439.5
0	51051	460.5	438.5
0	51052	460.5	437.5
0	51053	460.5	436.5
0	51054	460.5	435.5
0	51055	460.5	434.5
0	51056	460.5	433.5
0	51057	460.5	432.5
0	51058	460.5	431.5
0	51059	460.5	430.5
0	51060	460.5	429.5
0	51061	460.5	428.5
0	51062	460.5	427.5
0	51063	460.5	426.5
0	51064	460.5	425.5
0	51065	460.5	424.5
0	51066	460.5	423.5
0	51067	460.5	422.5
0	51068	460.5	421.5
0	51069	460.5	420.5
0	51070	460.5	419.5
0	51071	460.5	418.5
0	51072	460.5	417.5
0	51073	460.5	416.5
0	51074	460.5	415.5
0	51075	460.5	414.5
0	51076	460.5	413.5
0	51077	460.5	412.5
0	51078	460.5	411.5
0	51079	460.5	410.5
0	51080	460.5	409.5
0	51081	460.5	408.5
0	51082	460.5	407.5
0	51083	460.5	406.5
0	51084	460.5	405.5
0	51085	460.5	404.5
0	51086	460.5	403.5
0	51087	460.5	402.5
0	51088	460.5	401.5
0	51089	460.5	301.5
0	51090	460.5	201.5
0	51091	460.5	460.5
0	51092	460.5	459.5
0	51093	460.5	458.5
0	51094	460.5	457.5
0	51095	460.5	456.5
0	51096	460.5	455.5
0	51097	460.5	454.5
0	51098	460.5	453.5
0	51099	460.5	452.5
0	51100	460.5	451.5
0	51101	460.5	450.5
0	51102	460.5	449.5
0	51103	460.5	448.5
0	51104	460.5	447.5
0	51105	460.5	446.5
0	51106	460.5	445.5
0	51107	460.5	444.5
0	51108	460.5	443.5
0	51109	460.5	442.5
0	51110	460.5	441.5
0	51111	460.5	440.5
0	51112	460.5	439.5
0	51113	460.5	438.5
0	51114	460.5	437.5
0	51115	460.5	436.5
0	51116	460.5	435.5
0	51117	460.5	434.5
0	51118	460.5	433.5
0	51119	460.5	432.5
0	51120	460.5	431.5
0	51121	460.5	430.5
0	51122	460.5	429.5
0	51123	460.5	428.5
0	51124	460.5	427.5
0	51125	460.5	426.5
0	51126	460.5	425.5
0	51127	460.5	424.5
0	51128	460.5	423.5
0	51129	460.5	422.5
0	51130	460.5	421.5
0	51131	460.5	420.5
0	51132	460.5	419.5
0	51133	460.5	418.5
0	51134	460.5	417.5
0	51135	460.5	416.5
0	51136	460.5	415.5
0	51137	460.5	414.5
0	51138	460.5	413.5
0	51139	460.5	412.5
0	51140	460.5	411.5
0	51141	460.5	410.5
0	51142	460.5	409.5
0	51143	460.5	408.5
0	51144	460.5	407.5
0	51145	460.5	406.5
0	51146	460.5	405.5
0	51147	460.5	404.5
0	51148	460.5	403.5
0	51149	460.5	402.5
0	51150	460.5	401.5
0	51151	460.5	301.5
0	51152	460.5	201.5
0	51153	460.5	101.5
0	51154	460.5	1.5
0	51318	461.5	401.5
0	51319	461.5	301.5
0	51320	461.5	201.5
0	51321	461.5	101.5
0	51322	461.5	401.5
0	51323	461.5	301.5
0	51324	461.5	201.5
0	51325	461.5	401.5
0	51326	461.5	301.5
0	51327	461.5	201.5
0	51328	461.5	101.5
0	51329	461.5	1.5
0	51492	462.5	401.5
0	51493	462.5	301.5
0	51494	462.5	201.5
0	51495	462.5	101.5
0	51496	462.5	401.5
0	51497	462.5	301.5
0	51498	462.5	201.5
0	51499	462.5	401.5
0	51500	462.5	301.5
0	51501	462.5	201.5
0	51502	462.5	101.5
0	51503	462.5	1.5
0	51665	463.5	401.5
0	51666	463.5	301.5
0	51667	463.5	201.5
0	51668	463.5	101.5
0	51669	463.5	401.5
0	51670	463.5	301.5
0	51671	463.5	201.5
0	51672	463.5	401.5
0	51673	463.5	301.5
0	51674	463.5	201.5
0	51675	463.5	101.5
0	51676	463.5	1.5
0	51838	464.5	401.5
0	51839	464.5	301.5
0	51840	464.5	201.5
0	51841	464.5	101.5
0	51842	464.5	401.5
0	51843	464.5	301.5
0	51844	464.5	201.5
0	51845	464.5	401.5
0	51846	464.5	301.5
0	51847	464.5	201.5
0	51848	464.5	101.5
0	51849	464.5	1.5
0	52281	465.1	465.1
0	52282	465.1	464.1
0	52283	465.1	463.1
0	52284	465.1	462.1
0	52285	465.1	461.1
0	52286	465.1	460.1
0	52287	465.1	459.1
0	52288	465.1	458.1
0	52289	465.1	457.1
0	52290	465.1	456.1
0	52291	465.1	455.1
0	52292	465.1	454.1
0	52293	465.1	453.1
0	52294	465.1	452.1
0	52295	465.1	451.1
0	52296	465.1	450.1
0	52297	465.1	449.1
0	52298	465.1	448.1
0	52299	465.1	447.1
0	52300	465.1	446.1
0	52301	465.1	445.1
0	52302	465.1	444.1
0	52303	465.1	443.1
0	52304	465.1	442.1
0	52305	465.1	441.1
0	52306	465.1	440.1
0	52307	465.1	439.1
0	52308	465.1	438.1
0	52309	465.1	437.1
0	52310	465.1	436.1
0	52311	465.1	435.1
0	52312	465.1	434.1
0	52313	465.1	433.1
0	52314	465.1	432.1
0	52315	465.1	431.1
0	52316	465.1	430.1
0	52317	465.1	429.1
0	52318	465.1	428.1
0	52319	465.1	427.1
0	52320	465.1	426.1
0	52321	465.1	425.1
0	52322	465.1	424.1
0	52323	465.1	423.1
0	52324	465.1	422.1
0	52325	465.1	421.1
0	52326	465.1	420.1
0	52327	465.1	419.1
0	52328	465.1	418.1
0	52329	465.1	417.1
0	52330	465.1	416.1
0	52331	465.1	415.1
0	52332	465.1	414.1
0	52333	465.1	413.1
0	52334	465.1	412.1
0	52335	465.1	411.1
0	52336	465.1	410.1
0	52337	465.1	409.1
0	52338	465.1	408.1
0	52339	465.1	407.1
0	52340	465.1	406.1
0	52341	465.1	405.1
0	52342	465.1	404.1
0	52343	465.1	403.1
0	52344	465.1	402.1
0	52460	465.5	401.5
0	52461	465.5	301.5
0	52462	465.5	201.5
0	52463	465.5	101.5
0	52464	465.5	401.5
0	52465	465.5	301.5
0	52466	465.5	201.5
0	52467	465.5	401.5
0	52468	465.5	301.5
0	52469	465.5	201.5
0	52470	465.5	101.5
0	52471	465.5	1.5
0	52633	466.5	401.5
0	52634	466.5	301.5
0	52635	466.5	201.5
0	52636	466.5	101.5
0	52637	466.5	401.5
0	52638	466.5	301.5
0	52639	466.5	201.5
0	52640	466.5	401.5
0	52641	466.5	301.5
0	52642	466.5	201.5
0	52643	466.5	101.5
0	52644	466.5	1.5
0	52806	467.5	401.5
0	52807	467.5	301.5
0	52808	467.5	201.5
0	52809	467.5	101.5
0	52810	467.5	401.5
0	52811	467.5	301.5
0	52812	467.5	201.5
0	52813	467.5	401.5
0	52814	467.5	301.5
0	52815	467.5	201.5
0	52816	467.5	101.5
0	52817	467.5	1.5
0	52979	468.5	401.5
0	52980	468.5	301.5
0	52981	468.5	201.5
0	52982	468.5	101.5
0	52983	468.5	401.5
0	52984	468.5	301.5
0	52985	468.5	201.5
0	52986	468.5	401.5
0	52987	468.5	301.5
0	52988	468.5	201.5
0	52989	468.5	101.5
0	52990	468.5	1.5
0	53152	469.5	401.5
0	53153	469.5	301.5
0	53154	469.5	201.5
0	53155	469.5	101.5
0	53156	469.5	401.5
0	53157	469.5	301.5
0	53158	469.5	201.5
0	53159	469.5	401.5
0	53160	469.5	301.5
0	53161	469.5	201.5
0	53162	469.5	101.5
0	53163	469.5	1.5
0	53323	470.5	401.5
0	53324	470.5	301.5
0	53325	470.5	201.5
0	53326	470.5	101.5
0	53327	470.5	401.5
0	53328	470.5	301.5
0	53329	470.5	201.5
0	53330	470.5	401.5
0	53331	470.5	301.5
0	53332	470.5	201.5
0	53333	470.5	101.5
0	53334	470.5	1.5
0	53493	471.5	401.5
0	53494	471.5	301.5
0	53495	471.5	201.5
0	53496	471.5	101.5
0	53497	471.5	401.5
0	53498	471.5	301.5
0	53499	471.5	201.5
0	53500	471.5	401.5
0	53501	471.5	301.5
0	53502	471.5	201.5
0	53503	471.5	101.5
0	53504	471.5	1.5
0	53663	472.5	401.5
0	53664	472.5	301.5
0	53665	472.5	201.5
0	53666	472.5	101.5
0	53667	472.5	401.5
0	53668	472.5	301.5
0	53669	472.5	201.5
0	53670	472.5	401.5
0	53671	472.5	301.5
0	53672	472.5	201.5
0	53673	472.5	101.5
0	53674	472.5	1.5
0	53833	473.5	401.5
0	53834	473.5	301.5
0	53835	473.5	201.5
0	53836	473.5	101.5
0	53837	473.5	401.5
0	53838	473.5	301.5
0	53839	473.5	201.5
0	53840	473.5	401.5
0	53841	473.5	301.5
0	53842	473.5	201.5
0	53843	473.5	101.5
0	53844	473.5	1.5
0	54003	474.5	401.5
0	54004	474.5	301.5
0	54005	474.5	201.5
0	54006	474.5	101.5
0	54007	474.5	401.5
0	54008	474.5	301.5
0	54009	474.5	201.5
0	54010	474.5	401.5
0	54011	474.5	301.5
0	54012	474.5	201.5
0	54013	474.5	101.5
0	54014	474.5	1.5
0	54145	475.5	401.5
0	54146	475.5	301.5
0	54147	475.5	201.5
0	54148	475.5	101.5
0	54149	475.5	401.5
0	54150	475.5	301.5
0	54151	475.5	201.5
0	54152	475.5	401.5
0	54153	475.5	301.5
0	54154	475.5	201.5
0	54155	475.5	101.5
0	54156	475.5	1.5
0	54251	476.5	401.5
0	54252	476.5	201.5
0	54253	476.5	101.5
0	54254	476.5	201.5
0	54255	476.5	201.5
0	54256	476.5	101.5
0	54257	476.5	1.5
0	54351	477.5	401.5
0	54352	477.5	201.5
0	54353	477.5	101.5
0	54354	477.5	201.5
0	54355	477.5	201.5
0	54356	477.5	101.5
0	54357	477.5	1.5
0	54451	478.5	401.5
0	54452	478.5	201.5
0	54453	478.5	101.5
0	54454	478.5	201.5
0	54455	478.5	201.5
0	54456	478.5	101.5
0	54457	478.5	1.5
0	54551	479.5	401.5
0	54552	479.5	201.5
0	54553	479.5	101.5
0	54554	479.5	201.5
0	54555	479.5	201.5
0	54556	479.5	101.5
0	54557	479.5	1.5
0	54651	480.5	401.5
0	54652	480.5	201.5
0	54653	480.5	101.5
0	54654	480.5	201.5
0	54655	480.5	201.5
0	54656	480.5	101.5
0	54657	480.5	1.5
0	54742	481.5	401.5
0	54743	481.5	201.5
0	54744	481.5	101.5
0	54745	481.5	201.5
0	54746	481.5	101.5
0	54747	481.5	1.5
0	54831	482.5	401.5
0	54832	482.5	201.5
0	54833	482.5	101.5
0	54834	482.5	201.5
0	54835	482.5	101.5
0	54836	482.5	1.5
0	54920	483.5	401.5
0	54921	483.5	201.5
0	54922	483.5	101.5
0	54923	483.5	201.5
0	54924	483.5	101.5
0	54925	483.5	1.5
0	55009	484.5	401.5
0	55010	484.5	201.5
0	55011	484.5	101.5
0	55012	484.5	201.5
0	55013	484.5	101.5
0	55014	484.5	1.5
0	55427	485.5	401.5
0	55428	485.5	201.5
0	55429	485.5	101.5
0	55430	485.5	201.5
0	55431	485.5	101.5
0	55432	485.5	1.5
0	56036	486.5	401.5
0	56037	486.5	411.5
0	56038	486.5	311.5
0	56039	486.5	410.5
0	56040	486.5	310.5
0	56041	486.5	409.5
0	56042	486.5	309.5
0	56043	486.5	408.5
0	56044	486.5	308.5
0	56045	486.5	407.5
0	56046	486.5	307.5
0	56047	486.5	406.5
0	56048	486.5	306.5
0	56049	486.5	405.5
0	56050	486.5	305.5
0	56051	486.5	404.5
0	56052	486.5	304.5
0	56053	486.5	403.5
0	56054	486.5	303.5
0	56055	486.5	402.5
0	56056	486.5	302.5
0	56057	486.5	301.5
0	56058	486.5	201.5
0	56059	486.5	101.5
0	56060	486.5	411.5
0	56061	486.5	311.5
0	56062	486.5	410.5
0	56063	486.5	310.5
0	56064	486.5	409.5
0	56065	486.5	309.5
0	56066	486.5	408.5
0	56067	486.5	308.5
0	56068	486.5	407.5
0	56069	486.5	307.5
0	56070	486.5	406.5
0	56071	486.5	306.5
0	56072	486.5	405.5
0	56073	486.5	305.5
0	56074	486.5	404.5
0	56075	486.5	304.5
0	56076	486.5	403.5
0	56077	486.5	303.5
0	56078	486.5	402.5
0	56079	486.5	302.5
0	56080	486.5	401.5
0	56081	486.5	301.5
0	56082	486.5	411.5
0	56083	486.5	311.5
0	56084	486.5	410.5
0	56085	486.5	310.5
0	56086	486.5	409.5
0	56087	486.5	309.5
0	56088	486.5	408.5
0	56089	486.5	308.5
0	56090	486.5	407.5
0	56091	486.5	307.5
0	56092	486.5	406.5
0	56093	486.5	306.5
0	56094	486.5	405.5
0	56095	486.5	305.5
0	56096	486.5	404.5
0	56097	486.5	304.5
0	56098	486.5	403.5
0	56099	486.5	303.5
0	56100	486.5	402.5
0	56101	486.5	302.5
0	56102	486.5	401.5
0	56103	486.5	301.5
0	56104	486.5	201.5
0	56105	486.5	101.5
0	56106	486.5	1.5
0	56250	487.5	401.5
0	56251	487.5	301.5
0	56252	487.5	201.5
0	56253	487.5	101.5
0	56254	487.5	401.5
0	56255	487.5	301.5
0	56256	487.5	201.5
0	56257	487.5	101.5
0	56258	487.5	1.5
0	56438	488.5	401.5
0	56439	488.5	301.5
0	56440	488.5	402.5
0	56441	488.5	302.5
0	56442	488.5	201.5
0	56443	488.5	101.5
[...]
0	1771596	1785.3	1301.3
0	1771597	1785.3	1201.3
0	1771598	1785.3	1001.3
0	1771599	1785.3	801.3
0	1771600	1785.3	701.3
0	1771601	1785.3	601.3
0	1771602	1785.3	501.3
0	1771603	1785.3	401.3
0	1771604	1785.3	201.3
0	1771605	1785.3	101.3
0	1771606	1785.3	201.3
0	1771607	1785.3	101.3
0	1771608	1785.3	1.3
0	1771681	1785.5	1501.5
0	1771682	1785.5	1401.5
0	1771683	1785.5	1301.5
0	1771684	1785.5	1201.5
0	1771685	1785.5	1001.5
0	1771686	1785.5	801.5
0	1771687	1785.5	701.5
0	1771688	1785.5	601.5
0	1771689	1785.5	501.5
0	1771690	1785.5	401.5
0	1771729	1785.6	1501.6
0	1771730	1785.6	1401.6
0	1771731	1785.6	1301.6
0	1771732	1785.6	1201.6
0	1771733	1785.6	1001.6
0	1771734	1785.6	801.6
0	1771735	1785.6	701.6
0	1772344	1786.3	1711.3
0	1772345	1786.3	1611.3
0	1772346	1786.3	1710.3
0	1772347	1786.3	1610.3
0	1772348	1786.3	1709.3
0	1772349	1786.3	1609.3
0	1772350	1786.3	1708.3
0	1772351	1786.3	1608.3
0	1772352	1786.3	1707.3
0	1772353	1786.3	1607.3
0	1772354	1786.3	1706.3
0	1772355	1786.3	1606.3
0	1772356	1786.3	1705.3
0	1772357	1786.3	1605.3
0	1772358	1786.3	1704.3
0	1772359	1786.3	1604.3
0	1772360	1786.3	1703.3
0	1772361	1786.3	1603.3
0	1772362	1786.3	1702.3
0	1772363	1786.3	1602.3
0	1772364	1786.3	1701.3
0	1772365	1786.3	1601.3
0	1772366	1786.3	1501.3
0	1772367	1786.3	1401.3
0	1772368	1786.3	1301.3
0	1772369	1786.3	1201.3
0	1772370	1786.3	1001.3
0	1772371	1786.3	801.3
0	1772372	1786.3	701.3
0	1772373	1786.3	601.3
0	1772374	1786.3	501.3
0	1772375	1786.3	401.3
0	1772376	1786.3	201.3
0	1772377	1786.3	101.3
0	1772378	1786.3	1711.3
0	1772379	1786.3	201.3
0	1772380	1786.3	1611.3
0	1772381	1786.3	1710.3
0	1772382	1786.3	1610.3
0	1772383	1786.3	1709.3
0	1772384	1786.3	1609.3
0	1772385	1786.3	1708.3
0	1772386	1786.3	1608.3
0	1772387	1786.3	1707.3
0	1772388	1786.3	1607.3
0	1772389	1786.3	1706.3
0	1772390	1786.3	1606.3
0	1772391	1786.3	1705.3
0	1772392	1786.3	1605.3
0	1772393	1786.3	1704.3
0	1772394	1786.3	1604.3
0	1772395	1786.3	1703.3
0	1772396	1786.3	1603.3
0	1772397	1786.3	1702.3
0	1772398	1786.3	1602.3
0	1772399	1786.3	1701.3
0	1772400	1786.3	1601.3
0	1772401	1786.3	1501.3
0	1772402	1786.3	1401.3
0	1772403	1786.3	1301.3
0	1772404	1786.3	1201.3
0	1772405	1786.3	1001.3
0	1772406	1786.3	801.3
0	1772407	1786.3	701.3
0	1772408	1786.3	601.3
0	1772409	1786.3	501.3
0	1772410	1786.3	401.3
0	1772411	1786.3	201.3
0	1772412	1786.3	101.3
0	1772413	1786.3	201.3
0	1772414	1786.3	101.3
0	1772415	1786.3	1.3
0	1772642	1786.5	1711.5
0	1772643	1786.5	1611.5
0	1772644	1786.5	1710.5
0	1772645	1786.5	1610.5
0	1772646	1786.5	1709.5
0	1772647	1786.5	1609.5
0	1772648	1786.5	1708.5
0	1772649	1786.5	1608.5
0	1772650	1786.5	1707.5
0	1772651	1786.5	1607.5
0	1772652	1786.5	1706.5
0	1772653	1786.5	1606.5
0	1772654	1786.5	1705.5
0	1772655	1786.5	1605.5
0	1772656	1786.5	1704.5
0	1772657	1786.5	1604.5
0	1772658	1786.5	1703.5
0	1772659	1786.5	1603.5
0	1772660	1786.5	1702.5
0	1772661	1786.5	1602.5
0	1772662	1786.5	1701.5
0	1772663	1786.5	1601.5
0	1772664	1786.5	1501.5
0	1772665	1786.5	1401.5
0	1772666	1786.5	1301.5
0	1772667	1786.5	1201.5
0	1772668	1786.5	1001.5
0	1772669	1786.5	801.5
0	1772670	1786.5	701.5
0	1772671	1786.5	601.5
0	1772672	1786.5	501.5
0	1772673	1786.5	401.5
0	1772822	1786.6	1711.6
0	1772823	1786.6	1611.6
0	1772824	1786.6	1710.6
0	1772825	1786.6	1610.6
0	1772826	1786.6	1709.6
0	1772827	1786.6	1609.6
0	1772828	1786.6	1708.6
0	1772829	1786.6	1608.6
0	1772830	1786.6	1707.6
0	1772831	1786.6	1607.6
0	1772832	1786.6	1706.6
0	1772833	1786.6	1606.6
0	1772834	1786.6	1705.6
0	1772835	1786.6	1605.6
0	1772836	1786.6	1704.6
0	1772837	1786.6	1604.6
0	1772838	1786.6	1703.6
0	1772839	1786.6	1603.6
0	1772840	1786.6	1702.6
0	1772841	1786.6	1602.6
0	1772842	1786.6	1701.6
0	1772843	1786.6	1601.6
0	1772844	1786.6	1501.6
0	1772845	1786.6	1401.6
0	1772846	1786.6	1301.6
0	1772847	1786.6	1201.6
0	1772848	1786.6	1001.6
0	1772849	1786.6	801.6
0	1772850	1786.6	701.6
0	1773178	1787.3	1701.3
0	1773179	1787.3	1601.3
0	1773180	1787.3	1501.3
0	1773181	1787.3	1401.3
0	1773182	1787.3	1301.3
0	1773183	1787.3	1201.3
0	1773184	1787.3	1001.3
0	1773185	1787.3	801.3
0	1773186	1787.3	701.3
0	1773187	1787.3	601.3
0	1773188	1787.3	501.3
0	1773189	1787.3	401.3
0	1773190	1787.3	201.3
0	1773191	1787.3	101.3
0	1773192	1787.3	1701.3
0	1773193	1787.3	201.3
0	1773194	1787.3	1601.3
0	1773195	1787.3	1501.3
0	1773196	1787.3	1401.3
0	1773197	1787.3	1301.3
0	1773198	1787.3	1201.3
0	1773199	1787.3	1001.3
0	1773200	1787.3	801.3
0	1773201	1787.3	701.3
0	1773202	1787.3	601.3
0	1773203	1787.3	501.3
0	1773204	1787.3	401.3
0	1773205	1787.3	201.3
0	1773206	1787.3	101.3
0	1773207	1787.3	201.3
0	1773208	1787.3	101.3
0	1773209	1787.3	1.3
0	1773296	1787.5	1701.5
0	1773297	1787.5	1601.5
0	1773298	1787.5	1501.5
0	1773299	1787.5	1401.5
0	1773300	1787.5	1301.5
0	1773301	1787.5	1201.5
0	1773302	1787.5	1001.5
0	1773303	1787.5	801.5
0	1773304	1787.5	701.5
0	1773305	1787.5	601.5
0	1773306	1787.5	501.5
0	1773307	1787.5	401.5
0	1773356	1787.6	1701.6
0	1773357	1787.6	1601.6
0	1773358	1787.6	1501.6
0	1773359	1787.6	1401.6
0	1773360	1787.6	1301.6
0	1773361	1787.6	1201.6
0	1773362	1787.6	1001.6
0	1773363	1787.6	801.6
0	1773364	1787.6	701.6
0	1773692	1788.3	1701.3
0	1773693	1788.3	1601.3
0	1773694	1788.3	1501.3
0	1773695	1788.3	1401.3
0	1773696	1788.3	1301.3
0	1773697	1788.3	1201.3
0	1773698	1788.3	1001.3
0	1773699	1788.3	801.3
0	1773700	1788.3	701.3
0	1773701	1788.3	601.3
0	1773702	1788.3	501.3
0	1773703	1788.3	401.3
0	1773704	1788.3	201.3
0	1773705	1788.3	101.3
0	1773706	1788.3	1701.3
0	1773707	1788.3	201.3
0	1773708	1788.3	1601.3
0	1773709	1788.3	1501.3
0	1773710	1788.3	1401.3
0	1773711	1788.3	1301.3
0	1773712	1788.3	1201.3
0	1773713	1788.3	1001.3
0	1773714	1788.3	801.3
0	1773715	1788.3	701.3
0	1773716	1788.3	601.3
0	1773717	1788.3	501.3
0	1773718	1788.3	401.3
0	1773719	1788.3	201.3
0	1773720	1788.3	101.3
0	1773721	1788.3	201.3
0	1773722	1788.3	101.3
0	1773723	1788.3	1.3
0	1773810	1788.5	1701.5
0	1773811	1788.5	1601.5
0	1773812	1788.5	1501.5
0	1773813	1788.5	1401.5
0	1773814	1788.5	1301.5
0	1773815	1788.5	1201.5
0	1773816	1788.5	1001.5
0	1773817	1788.5	801.5
0	1773818	1788.5	701.5
0	1773819	1788.5	601.5
0	1773820	1788.5	501.5
0	1773821	1788.5	401.5
0	1773870	1788.6	1701.6
0	1773871	1788.6	1601.6
0	1773872	1788.6	1501.6
0	1773873	1788.6	1401.6
0	1773874	1788.6	1301.6
0	1773875	1788.6	1201.6
0	1773876	1788.6	1001.6
0	1773877	1788.6	801.6
0	1773878	1788.6	701.6
0	1774206	1789.3	1701.3
0	1774207	1789.3	1601.3
0	1774208	1789.3	1501.3
0	1774209	1789.3	1401.3
0	1774210	1789.3	1301.3
0	1774211	1789.3	1201.3
0	1774212	1789.3	1001.3
0	1774213	1789.3	801.3
0	1774214	1789.3	701.3
0	1774215	1789.3	601.3
0	1774216	1789.3	501.3
0	1774217	1789.3	401.3
0	1774218	1789.3	201.3
0	1774219	1789.3	101.3
0	1774220	1789.3	1701.3
0	1774221	1789.3	201.3
0	1774222	1789.3	1601.3
0	1774223	1789.3	1501.3
0	1774224	1789.3	1401.3
0	1774225	1789.3	1301.3
0	1774226	1789.3	1201.3
0	1774227	1789.3	1001.3
0	1774228	1789.3	801.3
0	1774229	1789.3	701.3
0	1774230	1789.3	601.3
0	1774231	1789.3	501.3
0	1774232	1789.3	401.3
0	1774233	1789.3	201.3
0	1774234	1789.3	101.3
0	1774235	1789.3	201.3
0	1774236	1789.3	101.3
0	1774237	1789.3	1.3
0	1774324	1789.5	1701.5
0	1774325	1789.5	1601.5
0	1774326	1789.5	1501.5
0	1774327	1789.5	1401.5
0	1774328	1789.5	1301.5
0	1774329	1789.5	1201.5
0	1774330	1789.5	1001.5
0	1774331	1789.5	801.5
0	1774332	1789.5	701.5
0	1774333	1789.5	601.5
0	1774334	1789.5	501.5
0	1774335	1789.5	401.5
0	1774384	1789.6	1701.6
0	1774385	1789.6	1601.6
0	1774386	1789.6	1501.6
0	1774387	1789.6	1401.6
0	1774388	1789.6	1301.6
0	1774389	1789.6	1201.6
0	1774390	1789.6	1001.6
0	1774391	1789.6	801.6
0	1774392	1789.6	701.6
0	1774826	1790.3	1701.3
0	1774827	1790.3	1601.3
0	1774828	1790.3	1501.3
0	1774829	1790.3	1401.3
0	1774830	1790.3	1301.3
0	1774831	1790.3	1201.3
0	1774832	1790.3	1001.3
0	1774833	1790.3	801.3
0	1774834	1790.3	701.3
0	1774835	1790.3	601.3
0	1774836	1790.3	501.3
0	1774837	1790.3	401.3
0	1774838	1790.3	201.3
0	1774839	1790.3	101.3
0	1774840	1790.3	1701.3
0	1774841	1790.3	201.3
0	1774842	1790.3	1601.3
0	1774843	1790.3	1501.3
0	1774844	1790.3	1401.3
0	1774845	1790.3	1301.3
0	1774846	1790.3	1201.3
0	1774847	1790.3	1001.3
0	1774848	1790.3	801.3
0	1774849	1790.3	701.3
0	1774850	1790.3	601.3
0	1774851	1790.3	501.3
0	1774852	1790.3	401.3
0	1774853	1790.3	201.3
0	1774854	1790.3	101.3
0	1774855	1790.3	201.3
0	1774856	1790.3	101.3
0	1774857	1790.3	1.3
0	1774944	1790.5	1701.5
0	1774945	1790.5	1601.5
0	1774946	1790.5	1501.5
0	1774947	1790.5	1401.5
0	1774948	1790.5	1301.5
0	1774949	1790.5	1201.5
0	1774950	1790.5	1001.5
0	1774951	1790.5	801.5
0	1774952	1790.5	701.5
0	1774953	1790.5	601.5
0	1774954	1790.5	501.5
0	1774955	1790.5	401.5
0	1775004	1790.6	1701.6
0	1775005	1790.6	1601.6
0	1775006	1790.6	1501.6
0	1775007	1790.6	1401.6
0	1775008	1790.6	1301.6
0	1775009	1790.6	1201.6
0	1775010	1790.6	1001.6
0	1775011	1790.6	801.6
0	1775012	1790.6	701.6
0	1775532	1791.2	814.2
0	1775533	1791.2	714.2
0	1775534	1791.2	813.2
0	1775535	1791.2	713.2
0	1775536	1791.2	812.2
0	1775537	1791.2	712.2
0	1775538	1791.2	811.2
0	1775539	1791.2	711.2
0	1775540	1791.2	810.2
0	1775541	1791.2	710.2
0	1775542	1791.2	809.2
0	1775543	1791.2	709.2
0	1775544	1791.2	808.2
0	1775545	1791.2	708.2
0	1775546	1791.2	807.2
0	1775547	1791.2	707.2
0	1775548	1791.2	806.2
0	1775549	1791.2	706.2
0	1775550	1791.2	805.2
0	1775551	1791.2	705.2
0	1775552	1791.2	804.2
0	1775553	1791.2	704.2
0	1775554	1791.2	803.2
0	1775555	1791.2	703.2
0	1775556	1791.2	802.2
0	1775557	1791.2	702.2
0	1775558	1791.2	814.2
0	1775559	1791.2	714.2
0	1775560	1791.2	813.2
0	1775561	1791.2	713.2
0	1775562	1791.2	812.2
0	1775563	1791.2	712.2
0	1775564	1791.2	811.2
0	1775565	1791.2	711.2
0	1775566	1791.2	810.2
0	1775567	1791.2	710.2
0	1775568	1791.2	809.2
0	1775569	1791.2	709.2
0	1775570	1791.2	808.2
0	1775571	1791.2	708.2
0	1775572	1791.2	807.2
0	1775573	1791.2	707.2
0	1775574	1791.2	806.2
0	1775575	1791.2	706.2
0	1775576	1791.2	805.2
0	1775577	1791.2	705.2
0	1775578	1791.2	804.2
0	1775579	1791.2	704.2
0	1775580	1791.2	803.2
0	1775581	1791.2	703.2
0	1775582	1791.2	802.2
0	1775583	1791.2	702.2
0	1775747	1791.3	1701.3
0	1775748	1791.3	1601.3
0	1775749	1791.3	1501.3
0	1775750	1791.3	1401.3
0	1775751	1791.3	1301.3
0	1775752	1791.3	1201.3
0	1775753	1791.3	1001.3
0	1775754	1791.3	801.3
0	1775755	1791.3	701.3
0	1775756	1791.3	601.3
0	1775757	1791.3	501.3
0	1775758	1791.3	401.3
0	1775759	1791.3	201.3
0	1775760	1791.3	101.3
0	1775761	1791.3	1701.3
0	1775762	1791.3	201.3
0	1775763	1791.3	1601.3
0	1775764	1791.3	1501.3
0	1775765	1791.3	1401.3
0	1775766	1791.3	1301.3
0	1775767	1791.3	1201.3
0	1775768	1791.3	1001.3
0	1775769	1791.3	801.3
0	1775770	1791.3	701.3
0	1775771	1791.3	601.3
0	1775772	1791.3	501.3
0	1775773	1791.3	401.3
0	1775774	1791.3	201.3
0	1775775	1791.3	101.3
0	1775776	1791.3	201.3
0	1775777	1791.3	101.3
0	1775778	1791.3	1.3
0	1775865	1791.5	1701.5
0	1775866	1791.5	1601.5
0	1775867	1791.5	1501.5
0	1775868	1791.5	1401.5
0	1775869	1791.5	1301.5
0	1775870	1791.5	1201.5
0	1775871	1791.5	1001.5
0	1775872	1791.5	801.5
0	1775873	1791.5	701.5
0	1775874	1791.5	601.5
0	1775875	1791.5	501.5
0	1775876	1791.5	401.5
0	1775925	1791.6	1701.6
0	1775926	1791.6	1601.6
0	1775927	1791.6	1501.6
0	1775928	1791.6	1401.6
0	1775929	1791.6	1301.6
0	1775930	1791.6	1201.6
0	1775931	1791.6	1001.6
0	1775932	1791.6	801.6
0	1775933	1791.6	701.6
0	1776243	1792.3	801.3
0	1776244	1792.3	701.3
0	1776245	1792.3	601.3
0	1776246	1792.3	802.3
0	1776247	1792.3	702.3
0	1776248	1792.3	501.3
0	1776249	1792.3	401.3
0	1776250	1792.3	201.3
0	1776251	1792.3	101.3
0	1776252	1792.3	801.3
0	1776253	1792.3	802.3
0	1776254	1792.3	701.3
0	1776255	1792.3	702.3
0	1776256	1792.3	601.3
0	1776257	1792.3	801.3
0	1776258	1792.3	501.3
0	1776259	1792.3	701.3
0	1776260	1792.3	401.3
0	1776261	1792.3	201.3
0	1776262	1792.3	201.3
0	1776263	1792.3	101.3
0	1776264	1792.3	201.3
0	1776265	1792.3	101.3
0	1776266	1792.3	1.3
0	1776304	1792.5	801.5
0	1776305	1792.5	701.5
0	1776306	1792.5	601.5
0	1776307	1792.5	501.5
0	1776308	1792.5	401.5
0	1776322	1792.6	801.6
0	1776323	1792.6	701.6
0	1776773	1793.3	1702.3
0	1776774	1793.3	1602.3
0	1776775	1793.3	1502.3
0	1776776	1793.3	1402.3
0	1776777	1793.3	1302.3
0	1776778	1793.3	1202.3
0	1776779	1793.3	1002.3
0	1776780	1793.3	1701.3
0	1776781	1793.3	1601.3
0	1776782	1793.3	1501.3
0	1776783	1793.3	1401.3
0	1776784	1793.3	1301.3
0	1776785	1793.3	1201.3
0	1776786	1793.3	1001.3
0	1776787	1793.3	801.3
0	1776788	1793.3	701.3
0	1776789	1793.3	601.3
0	1776790	1793.3	501.3
0	1776791	1793.3	401.3
0	1776792	1793.3	201.3
0	1776793	1793.3	101.3
0	1776794	1793.3	1702.3
0	1776795	1793.3	801.3
0	1776796	1793.3	1602.3
0	1776797	1793.3	701.3
0	1776798	1793.3	1502.3
0	1776799	1793.3	201.3
0	1776800	1793.3	1402.3
0	1776801	1793.3	1302.3
0	1776802	1793.3	1202.3
0	1776803	1793.3	1002.3
0	1776804	1793.3	1701.3
0	1776805	1793.3	1601.3
0	1776806	1793.3	1501.3
0	1776807	1793.3	1401.3
0	1776808	1793.3	1301.3
0	1776809	1793.3	1201.3
0	1776810	1793.3	1001.3
0	1776811	1793.3	801.3
0	1776812	1793.3	701.3
0	1776813	1793.3	601.3
0	1776814	1793.3	501.3
0	1776815	1793.3	401.3
0	1776816	1793.3	201.3
0	1776817	1793.3	101.3
0	1776818	1793.3	201.3
0	1776819	1793.3	101.3
0	1776820	1793.3	1.3
0	1776956	1793.5	1702.5
0	1776957	1793.5	1602.5
0	1776958	1793.5	1502.5
0	1776959	1793.5	1402.5
0	1776960	1793.5	1302.5
0	1776961	1793.5	1202.5
0	1776962	1793.5	1002.5
0	1776963	1793.5	1701.5
0	1776964	1793.5	1601.5
0	1776965	1793.5	1501.5
0	1776966	1793.5	1401.5
0	1776967	1793.5	1301.5
0	1776968	1793.5	1201.5
0	1776969	1793.5	1001.5
0	1776970	1793.5	801.5
0	1776971	1793.5	701.5
0	1776972	1793.5	601.5
0	1776973	1793.5	501.5
0	1776974	1793.5	401.5
0	1777058	1793.6	1702.6
0	1777059	1793.6	1602.6
0	1777060	1793.6	1502.6
0	1777061	1793.6	1402.6
0	1777062	1793.6	1302.6
0	1777063	1793.6	1202.6
0	1777064	1793.6	1002.6
0	1777065	1793.6	1701.6
0	1777066	1793.6	1601.6
0	1777067	1793.6	1501.6
0	1777068	1793.6	1401.6
0	1777069	1793.6	1301.6
0	1777070	1793.6	1201.6
0	1777071	1793.6	1001.6
0	1777072	1793.6	801.6
0	1777073	1793.6	701.6
0	1777425	1794.3	1701.3
0	1777426	1794.3	1601.3
0	1777427	1794.3	1501.3
0	1777428	1794.3	1401.3
0	1777429	1794.3	1301.3
0	1777430	1794.3	1201.3
0	1777431	1794.3	1001.3
0	1777432	1794.3	801.3
0	1777433	1794.3	701.3
0	1777434	1794.3	601.3
0	1777435	1794.3	501.3
0	1777436	1794.3	401.3
0	1777437	1794.3	201.3
0	1777438	1794.3	101.3
0	1777439	1794.3	1701.3
0	1777440	1794.3	801.3
0	1777441	1794.3	1601.3
0	1777442	1794.3	701.3
0	1777443	1794.3	1501.3
0	1777444	1794.3	201.3
0	1777445	1794.3	1401.3
0	1777446	1794.3	1301.3
0	1777447	1794.3	1201.3
0	1777448	1794.3	1001.3
0	1777449	1794.3	801.3
0	1777450	1794.3	701.3
0	1777451	1794.3	601.3
0	1777452	1794.3	501.3
0	1777453	1794.3	401.3
0	1777454	1794.3	201.3
0	1777455	1794.3	101.3
0	1777456	1794.3	201.3
0	1777457	1794.3	101.3
0	1777458	1794.3	1.3
0	1777545	1794.5	1701.5
0	1777546	1794.5	1601.5
0	1777547	1794.5	1501.5
0	1777548	1794.5	1401.5
0	1777549	1794.5	1301.5
0	1777550	1794.5	1201.5
0	1777551	1794.5	1001.5
0	1777552	1794.5	801.5
0	1777553	1794.5	701.5
0	1777554	1794.5	601.5
0	1777555	1794.5	501.5
0	1777556	1794.5	401.5
0	1777605	1794.6	1701.6
0	1777606	1794.6	1601.6
0	1777607	1794.6	1501.6
0	1777608	1794.6	1401.6
0	1777609	1794.6	1301.6
0	1777610	1794.6	1201.6
0	1777611	1794.6	1001.6
0	1777612	1794.6	801.6
0	1777613	1794.6	701.6
0	1777965	1795.3	1701.3
0	1777966	1795.3	1601.3
0	1777967	1795.3	1501.3
0	1777968	1795.3	1401.3
0	1777969	1795.3	1301.3
0	1777970	1795.3	1201.3
0	1777971	1795.3	1001.3
0	1777972	1795.3	801.3
0	1777973	1795.3	701.3
0	1777974	1795.3	601.3
0	1777975	1795.3	501.3
0	1777976	1795.3	401.3
0	1777977	1795.3	201.3
0	1777978	1795.3	101.3
0	1777979	1795.3	1701.3
0	1777980	1795.3	801.3
0	1777981	1795.3	1601.3
0	1777982	1795.3	701.3
0	1777983	1795.3	1501.3
0	1777984	1795.3	201.3
0	1777985	1795.3	1401.3
0	1777986	1795.3	1301.3
0	1777987	1795.3	1201.3
0	1777988	1795.3	1001.3
0	1777989	1795.3	801.3
0	1777990	1795.3	701.3
0	1777991	1795.3	601.3
0	1777992	1795.3	501.3
0	1777993	1795.3	401.3
0	1777994	1795.3	201.3
0	1777995	1795.3	101.3
0	1777996	1795.3	201.3
0	1777997	1795.3	101.3
0	1777998	1795.3	1.3
0	1778085	1795.5	1701.5
0	1778086	1795.5	1601.5
0	1778087	1795.5	1501.5
0	1778088	1795.5	1401.5
0	1778089	1795.5	1301.5
0	1778090	1795.5	1201.5
0	1778091	1795.5	1001.5
0	1778092	1795.5	801.5
0	1778093	1795.5	701.5
0	1778094	1795.5	601.5
0	1778095	1795.5	501.5
0	1778096	1795.5	401.5
0	1778145	1795.6	1701.6
0	1778146	1795.6	1601.6
0	1778147	1795.6	1501.6
0	1778148	1795.6	1401.6
0	1778149	1795.6	1301.6
0	1778150	1795.6	1201.6
0	1778151	1795.6	1001.6
0	1778152	1795.6	801.6
0	1778153	1795.6	701.6
0	1778481	1796.3	1701.3
0	1778482	1796.3	1601.3
0	1778483	1796.3	1501.3
0	1778484	1796.3	1401.3
0	1778485	1796.3	1301.3
0	1778486	1796.3	1201.3
0	1778487	1796.3	1001.3
0	1778488	1796.3	801.3
0	1778489	1796.3	701.3
0	1778490	1796.3	601.3
0	1778491	1796.3	501.3
0	1778492	1796.3	401.3
0	1778493	1796.3	201.3
0	1778494	1796.3	101.3
0	1778495	1796.3	1701.3
0	1778496	1796.3	801.3
0	1778497	1796.3	1601.3
0	1778498	1796.3	701.3
0	1778499	1796.3	1501.3
0	1778500	1796.3	201.3
0	1778501	1796.3	1401.3
0	1778502	1796.3	1301.3
0	1778503	1796.3	1201.3
0	1778504	1796.3	1001.3
0	1778505	1796.3	801.3
0	1778506	1796.3	701.3
0	1778507	1796.3	601.3
0	1778508	1796.3	501.3
0	1778509	1796.3	401.3
0	1778510	1796.3	201.3
0	1778511	1796.3	101.3
0	1778512	1796.3	201.3
0	1778513	1796.3	101.3
0	1778514	1796.3	1.3
0	1778601	1796.5	1701.5
0	1778602	1796.5	1601.5
0	1778603	1796.5	1501.5
0	1778604	1796.5	1401.5
0	1778605	1796.5	1301.5
0	1778606	1796.5	1201.5
0	1778607	1796.5	1001.5
0	1778608	1796.5	801.5
0	1778609	1796.5	701.5
0	1778610	1796.5	601.5
0	1778611	1796.5	501.5
0	1778612	1796.5	401.5
0	1778661	1796.6	1701.6
0	1778662	1796.6	1601.6
0	1778663	1796.6	1501.6
0	1778664	1796.6	1401.6
0	1778665	1796.6	1301.6
0	1778666	1796.6	1201.6
0	1778667	1796.6	1001.6
0	1778668	1796.6	801.6
0	1778669	1796.6	701.6
0	1778920	1797.3	1001.3
0	1778921	1797.3	801.3
0	1778922	1797.3	701.3
0	1778923	1797.3	601.3
0	1778924	1797.3	501.3
0	1778925	1797.3	401.3
0	1778926	1797.3	201.3
0	1778927	1797.3	101.3
0	1778928	1797.3	1001.3
0	1778929	1797.3	801.3
0	1778930	1797.3	801.3
0	1778931	1797.3	701.3
0	1778932	1797.3	701.3
0	1778933	1797.3	201.3
0	1778934	1797.3	601.3
0	1778935	1797.3	501.3
0	1778936	1797.3	401.3
0	1778937	1797.3	201.3
0	1778938	1797.3	101.3
0	1778939	1797.3	201.3
0	1778940	1797.3	101.3
0	1778941	1797.3	1.3
0	1778985	1797.5	1001.5
0	1778986	1797.5	801.5
0	1778987	1797.5	701.5
0	1778988	1797.5	601.5
0	1778989	1797.5	501.5
0	1778990	1797.5	401.5
0	1779009	1797.6	1001.6
0	1779010	1797.6	801.6
0	1779011	1797.6	701.6
0	1779257	1798.3	1001.3
0	1779258	1798.3	801.3
0	1779259	1798.3	701.3
0	1779260	1798.3	601.3
0	1779261	1798.3	501.3
0	1779262	1798.3	401.3
0	1779263	1798.3	201.3
0	1779264	1798.3	101.3
0	1779265	1798.3	1001.3
0	1779266	1798.3	801.3
0	1779267	1798.3	801.3
0	1779268	1798.3	701.3
0	1779269	1798.3	701.3
0	1779270	1798.3	201.3
0	1779271	1798.3	601.3
0	1779272	1798.3	501.3
0	1779273	1798.3	401.3
0	1779274	1798.3	201.3
0	1779275	1798.3	101.3
0	1779276	1798.3	201.3
0	1779277	1798.3	101.3
0	1779278	1798.3	1.3
0	1779322	1798.5	1001.5
0	1779323	1798.5	801.5
0	1779324	1798.5	701.5
0	1779325	1798.5	601.5
0	1779326	1798.5	501.5
0	1779327	1798.5	401.5
0	1779346	1798.6	1001.6
0	1779347	1798.6	801.6
0	1779348	1798.6	701.6
0	1779544	1799.3	1001.3
0	1779545	1799.3	801.3
0	1779546	1799.3	701.3
0	1779547	1799.3	601.3
0	1779548	1799.3	501.3
0	1779549	1799.3	401.3
0	1779550	1799.3	201.3
0	1779551	1799.3	101.3
0	1779552	1799.3	1001.3
0	1779553	1799.3	801.3
0	1779554	1799.3	801.3
0	1779555	1799.3	701.3
0	1779556	1799.3	701.3
0	1779557	1799.3	201.3
0	1779558	1799.3	601.3
0	1779559	1799.3	501.3
0	1779560	1799.3	401.3
0	1779561	1799.3	201.3
0	1779562	1799.3	101.3
0	1779563	1799.3	201.3
0	1779564	1799.3	101.3
0	1779565	1799.3	1.3
0	1779609	1799.5	1001.5
0	1779610	1799.5	801.5
0	1779611	1799.5	701.5
0	1779612	1799.5	601.5
0	1779613	1799.5	501.5
0	1779614	1799.5	401.5
0	1779633	1799.6	1001.6
0	1779634	1799.6	801.6
0	1779635	1799.6	701.6


